17
gdb 20876	6.71308	1.0388	0.96958	0.5515	69.87	-0.2571	-0.0001	0.2569	1220.9757	0.144328	-360.05961	-360.051738	-360.050794	-360.093275	27.786
C         -0.08350        1.57550       -0.03750
C         -0.16910        0.05210       -0.15070
C          0.89140       -0.53230       -1.10430
C          0.81710       -2.02210       -1.22300
N          1.50670       -2.83570       -0.41560
N          1.14330       -4.04820       -0.81470
N          0.27890       -4.11190       -1.81650
C          0.05410       -2.82690       -2.09240
H          0.89610        1.89010        0.33920
H         -0.23220        2.05570       -1.01120
H         -0.84390        1.96620        0.64550
H         -0.04310       -0.40620        0.83700
H         -1.16690       -0.24120       -0.50000
H          0.77140       -0.08340       -2.09770
H          1.88960       -0.25560       -0.74840
H          1.51960       -4.87920       -0.38840
H         -0.62160       -2.54090       -2.88300
