17
gdb 19361	4.29983	1.63933	1.47067	3.4271	67.41	-0.2169	0.0578	0.2747	910.9626	0.141165	-363.759606	-363.752296	-363.751352	-363.791164	28.2
C          0.04320        1.50100        0.25320
C          0.01270        0.01190       -0.12200
C         -1.37400       -0.55480       -0.14160
N         -2.15420       -0.88690        1.07380
C         -1.90170       -1.92620        0.04080
C         -2.92310       -1.69290       -1.12930
O         -3.74250       -0.56630       -0.82080
C         -2.42280       -0.33160       -1.30730
H          1.06680        1.88690        0.24170
H         -0.54850        2.09640       -0.44970
H         -0.37250        1.66280        1.25220
H          0.47150       -0.12840       -1.11000
H          0.62540       -0.56530        0.58280
H         -1.47110       -1.05460        1.81480
H         -1.38580       -2.85050        0.26690
H         -3.29770       -2.42470       -1.83420
H         -2.30000        0.28620       -2.18950
