12
gdb 4683	6.2311	1.40939	1.1577	5.4941	66.25	-0.2607	-0.0606	0.2001	959.1552	0.084648	-377.569792	-377.562952	-377.562008	-377.601074	24.061
C          0.13260        1.45210        0.07980
C         -0.05410       -0.01510       -0.02220
C         -1.11360       -0.83590       -0.26810
N         -0.70100       -2.15210       -0.24520
C          0.57020       -2.07960        0.00910
O          1.03940       -0.81140        0.15830
C          1.49620       -3.14480        0.14470
N          2.25640       -4.00980        0.25640
H          0.85070        1.81310       -0.66400
H         -0.82120        1.95660       -0.08660
H          0.50790        1.73640        1.06840
H         -2.14030       -0.56700       -0.45890
