18
gdb 14843	3.24768	1.44885	1.08555	4.3802	73.62	-0.2384	0.0154	0.2538	1110.9482	0.154009	-343.977309	-343.968985	-343.968041	-344.010405	29.989
C         -0.02500        1.54620       -0.10080
C          0.04160        0.02890        0.05240
N         -1.28470       -0.55430        0.14750
C         -2.09140       -0.35110        1.37030
C         -2.61800       -1.79810        1.22620
C         -1.39330       -2.01710        0.29240
C         -1.57470       -2.76570       -0.95130
N         -1.72260       -3.36510       -1.92830
H          0.98080        1.96690       -0.18900
H         -0.59800        1.81750       -0.99170
H         -0.50460        2.01140        0.76700
H          0.53370       -0.41310       -0.82220
H          0.65880       -0.23270        0.93520
H         -1.47620       -0.22330        2.27630
H         -2.81590        0.46570        1.31440
H         -2.65980       -2.41710        2.12120
H         -3.56190       -1.85710        0.68460
H         -0.54890       -2.46200        0.84560
