16
gdb 522	17.88474	1.19749	1.15436	0.1495	65.57	-0.2397	0.0646	0.3043	1048.5765	0.141123	-234.48564	-234.477444	-234.4765	-234.519304	27.01
C          3.07660       -0.15650       -0.05540
C          1.59240       -0.52200       -0.11700
C          0.67630        0.68910        0.15350
C         -0.74450        0.36210        0.09950
C         -1.91030        0.06440        0.04890
C         -3.32310       -0.28390       -0.00980
H          3.70770       -1.02890       -0.24990
H          3.32880        0.60890       -0.79810
H          3.34850        0.23780        0.93030
H          1.34650       -0.93810       -1.10040
H          1.36600       -1.30630        0.61410
H          0.92100        1.11240        1.13750
H          0.90140        1.48020       -0.57510
H         -3.84470        0.28910       -0.78480
H         -3.46310       -1.34690       -0.23640
H         -3.82500       -0.08190        0.94320
