17
gdb 2108	4.65835	2.37045	1.71484	1.8636	59.82	-0.2568	0.0839	0.3408	752.9165	0.150133	-346.859945	-346.853304	-346.85236	-346.890219	25.234
C         -0.02640        1.53790        0.01060
C          0.01730        0.00990        0.00230
C          0.72540       -0.54130       -1.24250
O          0.84030       -1.95630       -1.18050
C          1.51250       -2.35650       -0.01690
O          0.85060       -1.96880        1.15670
C          0.73630       -0.55450        1.23480
H          0.98290        1.96590        0.00840
H         -0.55260        1.92350       -0.86870
H         -0.54470        1.91410        0.89870
H         -1.00420       -0.38960        0.00470
H          0.17020       -0.31180       -2.15650
H          1.72860       -0.08620       -1.33050
H          1.54400       -3.44780       -0.02290
H          2.54090       -1.94240       -0.01920
H          1.74030       -0.10040        1.31890
H          0.18910       -0.33490        2.15610
