17
gdb 6436	4.27167	1.39687	1.27913	4.1955	68.72	-0.2764	0.0335	0.3099	983.5979	0.141618	-363.868959	-363.860787	-363.859843	-363.901183	30.661
C          0.38880        1.30030        0.09920
C         -0.07320       -0.15970       -0.00520
C          0.83070       -1.02870       -0.95080
C          1.56140       -1.59680        0.28550
O          2.79690       -0.92380        0.44500
C          0.41760       -1.05380        1.18870
C         -1.50360       -0.23530       -0.27850
N         -2.63770       -0.30800       -0.49420
H          1.46260        1.32240        0.29820
H          0.19200        1.83760       -0.83310
H         -0.13380        1.81670        0.90990
H          0.26350       -1.78800       -1.49120
H          1.45990       -0.47270       -1.64800
H          1.70120       -2.68440        0.30230
H          3.16980       -1.17860        1.29550
H          0.72400       -0.51270        2.08740
H         -0.30800       -1.82420        1.45780
