10
gdb 21911	7.65381	1.35728	1.15284	3.6952	52.01	-0.2875	-0.1054	0.1821	912.3009	0.060331	-450.597429	-450.591037	-450.590093	-450.628309	22.3
O          0.09970        1.30030       -0.05140
C          0.06320       -0.02700       -0.05510
N         -0.03660       -0.70810       -1.17620
O         -0.04030       -2.03060       -0.72980
C          0.05700       -1.99040        0.59820
C          0.07980       -3.24870        1.38550
O          0.01430       -4.34430        0.89480
N          0.12530       -0.78210        1.08480
H          0.17410        1.58890        0.86680
H          0.16370       -3.06560        2.47360
