12
gdb 3737	7.43112	2.07042	1.83731	4.9881	51.22	-0.3169	-0.0439	0.273	683.373	0.091004	-352.82952	-352.823336	-352.822391	-352.860599	20.751
C         -0.02190        1.54720        0.01590
C          0.00690        0.02000       -0.00740
N          0.68390       -0.49410       -1.19630
N          0.07890       -0.73460       -2.34830
N          1.02240       -1.12270       -3.15230
N          2.19400       -1.11400       -2.48900
N          1.98570       -0.71990       -1.26890
H          0.99250        1.95380        0.02020
H         -0.55520        1.93800       -0.85420
H         -0.53580        1.88640        0.91940
H          0.54670       -0.38520        0.85010
H         -0.99990       -0.40100       -0.02340
