18
gdb 17959	2.54351	2.54233	1.42395	1.3261	73.74	-0.239	-0.0101	0.229	895.8964	0.155747	-347.786283	-347.77917	-347.778226	-347.817296	28.048
C         -0.00310        1.53440       -0.06700
O          1.27960        2.15470       -0.05490
C          1.81310        2.50490        1.21910
C          2.64480        1.43220        1.89360
C          2.16170        0.31940        2.44510
C          0.69690       -0.06480        2.44310
C          0.29080       -0.68040        1.12040
C          0.00470        0.02140        0.02420
H         -0.62840        1.96050        0.73350
H         -0.45520        1.83390       -1.01780
H          2.44120        3.38190        1.03350
H          0.99830        2.82960        1.88550
H          3.71980        1.59500        1.90330
H          2.85310       -0.39880        2.88050
H          0.49150       -0.76280        3.26000
H          0.08840        0.82970        2.62740
H          0.29290       -1.76690        1.06770
H         -0.22850       -0.51490       -0.89240
