13
gdb 2792	4.39888	2.38721	1.66123	3.4062	49.66	-0.2799	-0.0017	0.2782	711.6475	0.102219	-381.607752	-381.601174	-381.60023	-381.638596	23.145
O         -0.00490        1.45250        0.08960
C          0.07580        0.06110       -0.12380
C         -1.31940       -0.57100       -0.09680
C         -1.47590       -2.09250        0.08300
O         -2.10100       -1.88030        1.39640
C         -1.95640       -0.52420        1.28970
O         -2.20750        0.31220        2.10150
H         -0.47280        1.59430        0.92260
H          0.54150       -0.08210       -1.10400
H          0.71780       -0.43550        0.62260
H         -1.94890       -0.12970       -0.87260
H         -2.16390       -2.59790       -0.59610
H         -0.55100       -2.66330        0.19280
