15
gdb 16097	4.63558	1.71472	1.47181	1.2691	73.47	-0.229	0.0029	0.2319	864.5488	0.119385	-325.473017	-325.466241	-325.465296	-325.50362	26.919
C          0.02760       -1.21590       -0.08920
C          0.03760       -0.01620        0.00450
C          0.01870        1.41020        0.10740
N          0.35420        2.24120       -1.10180
C          1.25490        2.26560        0.05990
C          1.03680        3.45290        0.99060
C         -0.38330        3.25210        1.48150
C         -0.92930        2.12640        1.02120
H          0.02610       -2.27490       -0.16580
H          0.75530        1.61950       -1.80340
H          2.23660        1.81410       -0.03010
H          1.75750        3.45200        1.81830
H          1.15670        4.40460        0.45930
H         -0.88640        3.97700        2.11110
H         -1.92640        1.75910        1.22660
