12
gdb 23671	4.02734	1.81765	1.2524	0.7288	59.17	-0.2444	-0.021	0.2234	856.3824	0.085481	-422.696556	-422.690613	-422.689669	-422.726638	23.08
O          0.09220        1.33840        0.09740
C          0.07050       -0.00750        0.05830
N          0.08050       -0.58350       -1.14010
C          0.05890       -1.92090       -1.17880
C          0.02720       -2.73070       -0.05360
C          0.01790       -2.08420        1.18010
F         -0.01230       -2.80680        2.29650
C          0.03920       -0.70660        1.26910
H          0.11200        1.62910       -0.82530
H          0.06760       -2.36740       -2.16940
H          0.01040       -3.81030       -0.11800
H          0.03230       -0.19290        2.22070
