20
gdb 16907	3.63615	1.75099	1.3639	1.7962	73.95	-0.2567	0.0833	0.34	967.9527	0.178955	-349.013629	-349.006191	-349.005247	-349.045021	29.457
C          0.06880        1.57790        0.02160
C          0.01090        0.04840       -0.02100
C          0.67720       -0.52040       -1.28340
C          0.45440       -2.03480       -1.40030
C          0.84540       -2.76500       -0.13570
O          2.10970       -2.41240        0.43150
C          0.91940       -2.05070        1.15040
C          0.62810       -0.56400        1.25330
H          1.10720        1.92990        0.01430
H         -0.43820        2.01880       -0.84320
H         -0.40770        1.97100        0.92630
H         -1.04770       -0.25070       -0.05140
H          0.27730       -0.02200       -2.17360
H          1.75310       -0.31100       -1.25570
H         -0.60510       -2.24520       -1.60140
H          1.01940       -2.44480       -2.24640
H          0.63520       -3.83610       -0.12210
H          0.78110       -2.62770        2.06550
H          1.57260       -0.05550        1.48890
H         -0.03850       -0.38640        2.10540
