15
gdb 10458	2.97944	1.53503	1.16565	3.4615	66.19	-0.2611	-0.0365	0.2247	1016.0809	0.11738	-362.672022	-362.663888	-362.662944	-362.705563	28.462
O         -0.26590        0.87690        1.13960
C          0.02780        1.13560        0.00210
C          1.39230        1.65260       -0.42240
C          1.29810        2.89310       -1.30900
C          1.05730        4.24750       -0.65290
C          2.40310        3.93790       -1.23340
C          0.69850        2.67380       -2.60210
N          0.21760        2.48040       -3.63680
H         -0.70030        1.00550       -0.82880
H          1.97140        1.87120        0.47840
H          1.90490        0.85050       -0.97080
H          0.42180        4.95220       -1.17480
H          0.94190        4.24140        0.42530
H          3.22450        3.71980       -0.56050
H          2.68890        4.42710       -2.15670
