15
gdb 8473	3.10371	2.04288	1.56867	3.6346	62.33	-0.2359	0.007	0.2429	842.5592	0.117697	-399.790177	-399.782485	-399.781541	-399.821746	28.901
C          0.01210        1.52960        0.10510
C         -0.00670        0.03370        0.08170
C          1.11060       -0.87090       -0.36800
C          0.56160       -0.96670        1.06870
O          1.32350       -0.70810        2.17990
C         -0.78290       -1.68910        0.98650
O         -1.27370       -2.68060        1.44410
N         -1.27970       -0.71370        0.09310
H          1.00860        1.89020        0.37530
H         -0.24260        1.94750       -0.87510
H         -0.70670        1.90930        0.83670
H          0.93260       -1.66140       -1.09160
H          2.09890       -0.41970       -0.40910
H          1.89090       -1.46870        2.34810
H         -1.77330       -0.97260       -0.75560
