15
gdb 20365	6.17701	1.40382	1.2577	0.6871	66.79	-0.2428	0.001	0.2438	952.8615	0.122036	-358.836233	-358.829616	-358.828672	-358.867637	24.633
C         -0.20960        1.34390       -0.27680
C          1.20600        1.09390        0.15590
C          0.22690       -0.06160        0.08750
C         -0.26310       -0.70390        1.31970
N         -0.51040       -2.01720        1.36930
N         -0.92540       -2.20730        2.61740
N         -0.97470       -1.13880        3.39690
C         -0.55610       -0.16310        2.59090
H         -0.87540        1.85290        0.41160
H         -0.40310        1.55450       -1.32260
H          1.99120        1.13170       -0.59080
H          1.51000        1.43170        1.14070
H          0.35410       -0.75960       -0.73200
H         -1.18890       -3.11930        2.95240
H         -0.48600        0.85170        2.94850
