18
gdb 1175	3.79027	1.82065	1.7122	4.0456	67.68	-0.3113	0.0438	0.3551	852.1125	0.158537	-289.87152	-289.862881	-289.861937	-289.903922	31.282
C          0.12630        1.55870        0.00920
C         -0.01270        0.03360        0.00230
C         -1.47390       -0.50730        0.01340
C         -2.23220       -0.08070        1.29050
C         -2.25650       -0.06710       -1.24430
C         -1.38600       -1.97870        0.00460
N         -1.31210       -3.13250       -0.00190
H          1.18600        1.83090        0.00090
H         -0.33450        2.01970       -0.86920
H         -0.31810        2.01010        0.90090
H          0.49130       -0.37380       -0.88130
H          0.50810       -0.38330        0.87160
H         -2.36420        1.00420        1.30650
H         -3.22230       -0.54290        1.32450
H         -1.68670       -0.37780        2.19060
H         -1.72840       -0.35430       -2.15780
H         -3.24700       -0.52910       -1.26430
H         -2.38890        1.01790       -1.24600
