16
gdb 1799	3.81908	2.55121	1.79293	2.6335	61.35	-0.2509	-0.0217	0.2291	743.6651	0.135478	-325.779372	-325.771683	-325.770738	-325.810984	27.856
C          0.78030        1.08930        0.32350
C         -0.26350        0.06320       -0.06450
O         -1.22810       -0.16050        0.63930
C         -0.07450       -0.69580       -1.35720
C          0.81170       -0.11730       -2.43870
C         -0.18580       -2.18550       -1.18910
N         -1.26290       -1.43200       -1.81910
H          1.77790        0.63740        0.34670
H          0.81660        1.89720       -0.41560
H          0.53650        1.50130        1.30300
H          1.84470        0.00420       -2.09790
H          0.81300       -0.78310       -3.30460
H          0.44590        0.85930       -2.77400
H          0.39260       -2.82350       -1.85260
H         -0.33780       -2.56730       -0.18340
H         -1.99270       -1.27840       -1.12170
