15
gdb 19889	4.13446	1.95527	1.63042	2.5608	70.9	-0.2049	0.0458	0.2507	806.651	0.118446	-325.388522	-325.381908	-325.380964	-325.418931	26.686
C         -0.20790       -1.30770       -0.15790
C          0.02820       -0.14100        0.01670
C          0.12940        1.29060        0.10520
C          0.50090        2.17590        1.28310
C          1.75030        1.71510        2.08440
N          2.24890        0.44500        1.51130
C          2.57150        1.73290        0.85740
C          1.34810        2.19420        0.01720
H         -0.35690       -2.35230       -0.27230
H         -0.68960        1.76620       -0.43600
H         -0.18230        2.93250        1.64800
H          1.98560        2.01500        3.09680
H          3.06590        0.16580        2.05400
H          3.59290        2.04980        0.69500
H          1.41460        2.96700       -0.73820
