14
gdb 841	7.32966	1.97888	1.57631	1.5216	60.58	-0.1811	0.045	0.2261	766.5941	0.114088	-324.608363	-324.601467	-324.600523	-324.638872	25.418
C         -0.02870        1.51950       -0.01460
C          0.00910        0.02380        0.01560
C         -0.03530       -0.81870       -1.04460
O          0.02190       -2.13020       -0.62160
C          0.10000       -2.09980        0.72790
N          0.24250       -3.33810        1.34020
C          0.09550       -0.81660        1.18610
H          0.87100        1.95250        0.43790
H         -0.09900        1.89300       -1.04000
H         -0.88720        1.91110        0.54350
H         -0.10570       -0.67780       -2.10970
H         -0.23540       -4.07480        0.83650
H         -0.04230       -3.32740        2.30980
H          0.14640       -0.49840        2.21560
