12
gdb 1025	8.01267	2.00775	1.60547	4.3627	61.64	-0.2294	-0.0431	0.1863	709.7198	0.092096	-323.42867	-323.422913	-323.421969	-323.458213	21.157
O         -0.17800       -0.01160        0.00010
C         -0.02660        1.19180        0.00800
C          1.25070        1.87360       -0.00100
C          2.55070        1.38270       -0.01960
C          3.42510        2.48600       -0.02050
C          2.64420        3.63180       -0.00250
N          1.33990        3.25290        0.00880
H         -0.90700        1.88030        0.02340
H          2.80660        0.33500       -0.03090
H          4.50370        2.46210       -0.03280
H          2.92320        4.67370        0.00270
H          0.55090        3.87750        0.02270
