18
gdb 1270	6.76899	1.13746	1.04786	2.7971	69.8	-0.2473	0.0246	0.2719	1172.7453	0.15739	-326.978724	-326.969665	-326.968721	-327.012811	30.839
C          0.00490        1.37520       -0.01840
O         -0.01150       -0.04510        0.03520
C          0.58030       -0.67290       -1.00190
N          0.62370       -1.92780       -1.05520
C          1.27920       -2.53610       -2.20580
C          2.46790       -3.37310       -1.71820
C          0.26110       -3.39760       -2.96250
H          1.02960        1.76720       -0.01880
H         -0.52500        1.75190       -0.90210
H         -0.50840        1.72290        0.87890
H          1.00220        0.00430       -1.76260
H          1.66090       -1.76250       -2.89790
H          2.12670       -4.14430       -1.02080
H          2.96940       -3.86090       -2.56050
H          3.19820       -2.74660       -1.19760
H         -0.57280       -2.78840       -3.32370
H          0.73040       -3.88560       -3.82290
H         -0.14610       -4.16960       -2.30230
