14
gdb 2793	4.90412	1.98677	1.51964	2.6721	54.32	-0.2491	-0.0327	0.2163	775.8725	0.113407	-361.695007	-361.688047	-361.687102	-361.726474	24.688
O         -0.00290        1.40350       -0.18560
C          0.01010        0.08870        0.32720
C         -1.34580       -0.58130        0.08150
N         -1.71020       -0.56070       -1.37110
C         -1.84230       -2.04630       -1.43860
C         -1.36840       -2.11850        0.02360
O         -1.10680       -2.99690        0.78810
H         -0.25330        1.30930       -1.11450
H          0.80700       -0.51560       -0.13390
H          0.21500        0.15250        1.39970
H         -2.10590       -0.15300        0.74670
H         -2.58710       -0.08580       -1.54780
H         -2.86180       -2.42750       -1.57710
H         -1.18870       -2.52310       -2.17700
