20
gdb 8011	3.11383	1.77804	1.3551	1.0565	71.29	-0.2486	0.0883	0.3368	1002.3124	0.175998	-386.162313	-386.153602	-386.152657	-386.195467	32.39
C          0.05010        1.50180       -0.36900
C          0.12910        0.04710        0.03750
O          0.34310       -0.78420       -1.09700
C          1.29320       -1.79810       -0.74780
C          2.52810       -1.65170       -1.63000
C          1.50700       -1.56050        0.77000
C          2.87400       -1.86170        1.35390
O          1.21850       -0.17170        0.89990
H          0.98620        1.80340       -0.84510
H         -0.77220        1.64460       -1.07460
H         -0.12690        2.12840        0.50930
H         -0.80550       -0.27330        0.53720
H          0.83420       -2.78130       -0.91520
H          3.03360       -0.70090       -1.43810
H          3.23660       -2.46950       -1.46330
H          2.22680       -1.66960       -2.68090
H          0.74180       -2.13710        1.31730
H          3.65380       -1.27900        0.85830
H          2.88700       -1.61570        2.41900
H          3.10930       -2.92520        1.24750
