20
gdb 10183	3.05127	1.1503	0.87624	0.8181	78.25	-0.262	0.0394	0.3014	1361.7114	0.173847	-348.965333	-348.955266	-348.954322	-349.000466	35.521
C         -0.06310        1.99100       -1.35950
C         -0.08130        0.57360       -0.78160
C          0.73410       -0.41460       -1.62090
C          0.70150       -1.84520       -1.06450
O         -0.64720       -2.28610       -1.10340
C         -0.87620       -3.50280       -0.42450
C          1.59320       -2.73790       -1.81970
C          2.31930       -3.46210       -2.44720
H          0.95760        2.38590       -1.41730
H         -0.48160        2.01060       -2.37180
H         -0.65110        2.67840       -0.74350
H          0.31410        0.58950        0.24320
H         -1.11110        0.21030       -0.70950
H          0.35480       -0.44490       -2.64890
H          1.78100       -0.09510       -1.67730
H          1.04530       -1.82590       -0.01430
H         -0.30820       -4.33100       -0.86920
H         -0.60750       -3.42720        0.64090
H         -1.94440       -3.71620       -0.50610
H          2.96270       -4.10220       -2.99890
