22
gdb 13288	6.60216	0.7411	0.69765	1.3099	79.14	-0.2614	0.0811	0.3425	1646.3477	0.20029	-350.19321	-350.183908	-350.182964	-350.227954	33.615
O         -0.08350        1.46500       -0.11730
C          0.02240        0.05860        0.05030
C         -1.37760       -0.53430       -0.03260
C         -1.39500       -2.05800        0.13020
C         -2.79280       -2.65570        0.04010
C         -3.53970       -2.65120       -1.32680
C         -4.08210       -4.06670       -0.99180
C         -2.95830       -4.20170        0.07070
H          0.79970        1.84120       -0.06340
H          0.66200       -0.38800       -0.72920
H          0.47550       -0.19340        1.02360
H         -1.99900       -0.06560        0.74060
H         -1.81620       -0.25210       -0.99740
H         -0.75980       -2.51850       -0.64030
H         -0.94730       -2.33030        1.09680
H         -3.43430       -2.20330        0.80690
H         -4.26420       -1.85530       -1.51580
H         -2.83130       -2.67980       -2.16230
H         -5.07260       -4.02140       -0.52980
H         -4.11140       -4.80380       -1.79770
H         -2.07410       -4.70080       -0.34060
H         -3.20630       -4.67110        1.02630
