12
gdb 8790	4.60473	1.28733	1.01234	1.0243	59.04	-0.2552	-0.1054	0.1498	1059.5686	0.079477	-418.445364	-418.43672	-418.435776	-418.479306	29.037
O          0.01390        1.41140        0.00950
C         -0.01170        0.01000        0.00240
C         -1.45480       -0.45640        0.01350
O         -2.41210        0.27040        0.02630
C         -1.62350       -1.99320        0.00700
O         -0.65380       -2.72170       -0.00600
C         -2.98430       -2.47480        0.01720
C         -4.11340       -2.89090        0.02570
H          0.93370        1.69120        0.00190
H          0.47250       -0.43370       -0.88340
H          0.48900       -0.44290        0.87430
H         -5.11180       -3.25710        0.03360
