18
gdb 7519	5.00796	1.17871	1.10383	2.0368	74.03	-0.2541	0.0498	0.3039	1132.29	0.150067	-347.761991	-347.752725	-347.751781	-347.795742	33.68
C          0.06960        1.41240       -0.35370
C          0.06760       -0.02710        0.09310
O          1.32930       -0.70660        0.16550
C          0.58770       -0.53010        1.37940
C          1.21230        0.37060        2.42060
C         -0.02810       -1.82310        1.92470
C          0.91630       -2.65360        2.66470
C          1.70050       -3.32780        3.27690
H          0.85300        1.99440        0.13430
H          0.23340        1.46670       -1.43520
H         -0.89860        1.87830       -0.13960
H         -0.71650       -0.62860       -0.37500
H          1.69100        1.23740        1.96420
H          0.45610        0.72040        3.13220
H          1.97020       -0.18280        2.98250
H         -0.87510       -1.56530        2.57510
H         -0.43700       -2.39430        1.08390
H          2.39160       -3.93200        3.81040
