14
gdb 9448	2.85006	1.80472	1.73165	5.6395	64.07	-0.253	-0.0011	0.2519	841.8208	0.10805	-374.891639	-374.883782	-374.882838	-374.923725	28.431
N          0.15670        1.50030        0.14230
C          0.02200        0.06320        0.00370
C         -1.45150       -0.46650       -0.13710
N         -1.01310       -1.18080       -1.34410
C          0.23590       -0.58330       -1.40050
N          1.19310       -0.46430       -2.21110
C          0.77650       -0.61600        1.05630
N          1.37390       -1.16160        1.88090
H          1.14330        1.74430        0.16690
H         -0.22470        1.94980       -0.68610
H         -1.81940       -1.10770        0.66630
H         -2.15220        0.35650       -0.31450
H         -1.58760       -1.47240       -2.12110
H          1.02030       -0.93640       -3.09970
