16
gdb 4480	3.62774	1.68764	1.16642	0.6403	68.38	-0.1666	0.0608	0.2275	1000.8816	0.130196	-379.952436	-379.943471	-379.942527	-379.986558	31.609
C          0.08320        1.52740        0.00130
C          0.03920        0.02950        0.00880
C         -0.03610       -0.80230       -1.08360
O         -0.10010       -0.57480       -2.42470
N         -0.04690       -2.10230       -0.66420
C          0.02310       -2.13790        0.71870
N         -0.01910       -3.39590        1.36420
C          0.08270       -0.83890        1.15440
H          1.02590        1.92020        0.40250
H         -0.02190        1.93560       -1.01190
H         -0.72650        1.96450        0.59800
H         -0.03460        0.37390       -2.56960
H         -0.17840       -2.90650       -1.25290
H          0.90940       -3.74570        1.58550
H         -0.53120       -3.33480        2.23620
H          0.16100       -0.52430        2.18510
