14
gdb 15958	3.25868	1.89469	1.37016	1.7589	63.46	-0.2596	0.0096	0.2691	883.7738	0.105091	-382.450226	-382.442866	-382.441922	-382.482132	26.98
C         -0.12880       -1.19490       -0.34710
C         -0.05070       -0.02160       -0.09750
C          0.06040        1.39740        0.17970
O          0.05740        1.72900        1.59560
C          1.29370        2.47490        1.50270
C          1.44460        2.06100        0.04510
C          2.59800        1.69640       -0.76610
O          1.82950        2.89200       -1.01630
H         -0.20680       -2.23260       -0.55990
H         -0.71760        1.95850       -0.35620
H          1.14390        3.55180        1.64870
H          2.05030        2.10660        2.20430
H          3.60340        1.86280       -0.38310
H          2.49850        0.91340       -1.51520
