17
gdb 6950	2.63754	2.38332	1.71897	4.5382	70.76	-0.2154	-0.0252	0.1902	835.4901	0.14214	-363.908781	-363.900903	-363.899959	-363.940393	30.105
C         -0.04990        1.57620        0.04050
C          0.01020        0.04800       -0.02200
C         -1.38860       -0.57650       -0.09450
N          0.86740       -0.42220       -1.12190
C          1.82160       -1.26150       -0.62320
C          1.84910       -1.31980        0.73510
C          0.75320       -0.50810        1.23390
O          0.40640       -0.25430        2.37110
H          0.95500        2.00500        0.00460
H         -0.63170        1.98580       -0.79190
H         -0.51880        1.87280        0.98270
H         -1.95020       -0.19180       -0.95330
H         -1.32890       -1.66640       -0.17260
H         -1.93710       -0.33020        0.81870
H          0.47590       -0.58290       -2.03700
H          2.47730       -1.77760       -1.31530
H          2.55960       -1.85660        1.34340
