12
gdb 1072	7.98132	2.11068	1.687	0.1961	51.81	-0.2164	0.0031	0.2194	693.5577	0.091093	-360.529236	-360.523085	-360.52214	-360.559696	21.379
C          0.00060        1.41380       -0.02180
O          0.00470       -0.01240       -0.00380
C          0.59740       -0.61640       -1.04320
C          0.72140       -1.95630       -1.24510
O          1.39550       -2.11880       -2.43320
C          1.63190       -0.87130       -2.86550
N          1.18570        0.06810       -2.09060
H          1.01960        1.81310       -0.02580
H         -0.52920        1.79760       -0.89920
H         -0.51640        1.71720        0.88960
H          0.42700       -2.84190       -0.71430
H          2.16030       -0.76600       -3.79960
