16
gdb 19170	3.53527	1.84888	1.44744	2.8116	65.45	-0.2374	0.0036	0.241	878.7348	0.12982	-383.694039	-383.686574	-383.68563	-383.72537	28.525
C         -0.38320        1.53670       -0.02460
C         -0.04480        0.05230        0.05510
C          1.13270       -0.60170       -0.77900
C          2.14800       -0.07840        0.28290
O          2.50050        1.27570        0.19080
C          0.91770       -0.54180        1.16210
C          0.94430       -1.75310        0.22330
O          0.83460       -2.93980        0.24790
H          0.49090        2.17750        0.04860
H         -0.89190        1.74380       -0.97270
H         -1.08240        1.79370        0.77920
H         -0.97610       -0.51820       -0.03070
H          1.25790       -0.63620       -1.85880
H          3.04690       -0.69710        0.40330
H          3.02710        1.49760        0.96540
H          0.80520       -0.50870        2.24420
