18
gdb 19009	5.14743	1.78921	1.58761	0.3013	77.33	-0.2087	0.0164	0.2251	866.584	0.155386	-310.620142	-310.613702	-310.612758	-310.650329	26.449
C         -0.04490        1.50240        0.02060
C         -0.00790        0.01340       -0.03230
C         -0.04870       -0.83720       -1.06370
C          0.02850       -2.21100       -0.42030
C         -0.83480       -2.15340        0.89550
C          0.17780       -3.07890        1.60840
C          1.04310       -2.10240        0.77920
C          0.09220       -0.91300        1.17780
H          0.85580        1.90960        0.49870
H         -0.12140        1.93720       -0.98000
H         -0.89690        1.86210        0.61230
H         -0.12010       -0.62320       -2.12150
H          0.01500       -3.11310       -1.03400
H         -1.92680       -2.17060        0.95470
H          0.24280       -2.99190        2.69690
H          0.18720       -4.12840        1.29980
H          2.13340       -2.06030        0.70320
H          0.14320       -0.49370        2.18490
