17
gdb 6495	3.8354	1.4599	1.36654	2.2178	64.66	-0.2599	0.0568	0.3168	980.9576	0.140874	-401.035233	-401.026713	-401.025769	-401.068093	31.702
C         -0.05080        1.63250       -0.58950
C         -0.04450        0.19230       -0.14090
C          1.18550       -0.65810       -0.26250
C          0.66950       -0.24490        1.10210
O         -1.23520       -0.51820       -0.47060
C         -2.34020       -0.23870        0.27500
N         -3.37110       -1.04130       -0.13040
O         -2.39690        0.56630        1.17320
H          0.91930        2.09510       -0.38670
H         -0.24060        1.69910       -1.66620
H         -0.82100        2.19500       -0.05710
H          1.04240       -1.69070       -0.55890
H          2.08790       -0.19450       -0.64560
H          1.21280        0.50570        1.66500
H          0.19200       -1.00440        1.70930
H         -3.29720       -1.51280       -1.01580
H         -4.28710       -0.77930        0.19050
