12
gdb 16276	3.16857	2.11722	1.45124	4.2922	56.9	-0.2563	-0.057	0.1993	816.4508	0.08135	-418.450222	-418.443299	-418.442355	-418.481757	24.579
O         -0.22990       -0.00680        0.18540
C         -0.03890        1.18000        0.13040
C          1.30220        1.79090       -0.01650
O          1.44980        3.18780        0.34250
C          1.75670        2.84580       -0.98860
C          3.20410        2.33470       -1.00610
C          2.73520        1.23100       -0.01100
O          3.24920        0.26630        0.45760
H         -0.85990        1.92840        0.17260
H          1.17540        3.29540       -1.78480
H          3.51930        1.88280       -1.95120
H          3.95550        3.04650       -0.65970
