17
gdb 9750	3.57342	1.75409	1.6329	2.4413	64.21	-0.2547	0.0244	0.2791	877.394	0.141682	-401.014611	-401.006652	-401.005708	-401.046885	29.167
C          0.04890        1.40890       -0.09840
O         -0.00850       -0.00540        0.01680
C         -1.27900       -0.58760        0.03750
C         -2.12740       -0.27470       -1.18770
C         -1.07600       -2.09150        0.35380
N         -1.52470       -2.27310        1.74080
C         -1.99640       -1.15190        2.09110
O         -2.00530       -0.11570        1.21480
H          1.08960        1.68680        0.08010
H         -0.23860        1.75440       -1.09970
H         -0.58620        1.89700        0.64880
H         -1.59220       -0.57320       -2.09370
H         -3.06950       -0.82510       -1.13710
H         -2.36330        0.79000       -1.25170
H         -1.65600       -2.73860       -0.31230
H         -0.01920       -2.35010        0.25090
H         -2.42670       -0.92480        3.06050
