18
gdb 15139	8.31793	0.71874	0.70151	2.7598	70.38	-0.2532	-0.0258	0.2275	1582.9228	0.151226	-384.920701	-384.911775	-384.910831	-384.955857	30.696
O         -0.30050        1.01280        1.11330
C          0.02410        1.28630       -0.01270
C          1.39740        1.76050       -0.42850
C          1.34210        3.08240       -1.19370
O          2.62520        3.32170       -1.73950
C          2.70790        4.52400       -2.44120
C          2.96810        5.80220       -1.68420
C          4.05840        5.15500       -2.51680
H         -0.70350        1.19540       -0.85420
H          2.03770        1.83780        0.45300
H          1.82370        1.00490       -1.10330
H          0.58840        3.02750       -1.99780
H          1.04650        3.90560       -0.52600
H          2.06100        4.57370       -3.31840
H          2.51290        6.72120       -2.03650
H          3.06300        5.72300       -0.60700
H          4.85430        4.65140       -1.98050
H          4.35920        5.62360       -3.44670
