13
gdb 5143	6.14356	1.41373	1.15744	1.2681	63.13	-0.2342	0.0155	0.2496	949.0782	0.097919	-357.698499	-357.691634	-357.69069	-357.731445	24.32
N         -0.58930       -0.17190       -1.44790
C         -0.26050        0.42730       -0.51630
C          0.20910        1.20560        0.62750
C          1.50340        1.92040        0.33990
N          2.13700        2.68500        1.19820
C          3.25600        3.12960        0.53150
C          3.29160        2.62460       -0.74090
N          2.15920        1.84850       -0.85220
H         -0.56350        1.93050        0.90870
H          0.33440        0.53790        1.48770
H          3.96840        3.78610        1.00680
H          3.98790        2.73560       -1.55480
H          1.86310        1.32260       -1.65950
