11
gdb 2559	3.76122	2.59832	1.70992	1.686	59.38	-0.2651	-0.0069	0.2583	704.2482	0.075031	-306.012858	-306.005974	-306.00503	-306.043396	25.208
C          0.03390       -1.17220       -0.01890
C          0.00430        0.02770        0.01800
C         -0.04680        1.47010        0.06500
C          0.54430        2.18220        1.23020
O          1.23100        2.14430       -0.00740
C         -1.12330        2.09080       -0.67070
C         -2.02650        2.59860       -1.27770
H          0.06350       -2.23340       -0.05730
H          0.12410        3.14570        1.51290
H          0.97580        1.58720        2.03310
H         -2.82140        3.04760       -1.82080
