14
gdb 20988	3.48322	2.19421	1.36119	3.8274	59.35	-0.2036	0.0433	0.2468	845.8876	0.109007	-412.085785	-412.078005	-412.077061	-412.117755	27.746
C         -0.08590        1.46950        0.01940
N         -0.01120        0.02710        0.04110
C         -0.03900       -0.76450       -1.12540
O         -0.06510       -0.37630       -2.27610
N         -0.03480       -2.02930       -0.60550
N         -0.00230       -2.07410        0.78400
C         -0.00270       -0.81940        1.12250
N         -0.07970       -0.34540        2.42080
H          0.84730        1.93070        0.36270
H         -0.25540        1.75840       -1.01990
H         -0.91170        1.82440        0.64270
H         -0.06270       -2.88050       -1.13630
H         -0.00500       -1.10610        3.08470
H          0.59070        0.38330        2.63360
