15
gdb 8654	2.33643	1.81835	1.42198	1.6824	61.77	-0.2769	-0.056	0.2209	935.8477	0.116014	-399.814916	-399.805871	-399.804926	-399.848774	31.129
C          0.11970        1.66290       -0.20630
C          0.01140        0.12240       -0.06550
C          0.58370       -0.35030        1.29920
O          1.93920        0.00110        1.45760
C         -1.47310       -0.25880       -0.19500
O         -2.15010       -0.58820        0.73970
C          0.75840       -0.52600       -1.14880
N          1.36150       -1.05840       -1.97970
H          1.15950        1.95940       -0.05970
H         -0.21500        2.00100       -1.18990
H         -0.49470        2.14020        0.56210
H          0.02650        0.15380        2.09150
H          0.41620       -1.42910        1.40890
H          2.46880       -0.56060        0.88060
H         -1.88590       -0.16980       -1.22220
