18
gdb 16531	2.85879	2.25956	1.74311	1.2203	66.57	-0.2466	0.0582	0.3048	832.9269	0.154124	-384.900923	-384.893318	-384.892374	-384.933063	28.905
C          0.14020        1.60060        0.09730
C          0.08400        0.08240        0.01610
C          1.06490       -0.67390       -0.95640
O          2.08220        0.07320       -1.57670
C          1.47390       -1.64080        0.21210
C          2.68980       -1.16610        1.00370
O          1.89280       -0.17790        1.70690
C          0.66010       -0.74090        1.18520
H          1.11700        1.94040        0.45400
H         -0.05240        2.05520       -0.87920
H         -0.60800        1.97950        0.80130
H         -0.94100       -0.24850       -0.18890
H          0.55060       -1.19250       -1.76890
H          2.44170        0.69050       -0.93090
H          1.32040       -2.70780        0.05960
H          3.09350       -1.91490        1.69730
H          3.51680       -0.72020        0.43900
H         -0.00140       -1.09200        1.98230
