20
gdb 5848	3.15646	1.41722	1.23503	2.1438	67.	-0.2558	0.0587	0.3145	1073.4849	0.174481	-423.277912	-423.26819	-423.267246	-423.311462	36.715
C         -0.11450        1.52750        0.10500
C         -0.00220        0.00430        0.03980
C          0.76770       -0.53110        1.25810
O         -1.33530       -0.50540        0.04480
C          0.69130       -0.47750       -1.25750
O          0.56690       -1.89650       -1.26960
C          0.05920        0.08280       -2.53270
O          0.59650       -0.68120       -3.61560
H          0.86840        1.99940        0.00910
H         -0.76960        1.91100       -0.68110
H         -0.54280        1.82270        1.06700
H          0.21810       -0.28890        2.17180
H          0.88110       -1.61600        1.19300
H          1.76710       -0.08750        1.32390
H         -1.24670       -1.43640       -0.20150
H          1.75560       -0.19380       -1.23190
H          0.66420       -2.15170       -2.19720
H         -1.03010       -0.03020       -2.46700
H          0.30120        1.14660       -2.65180
H          0.02390       -0.57450       -4.37970
