16
gdb 13548	2.7937	1.8523	1.27023	4.5009	65.02	-0.2665	0.0194	0.2859	966.8279	0.129668	-379.899487	-379.890839	-379.889895	-379.93331	30.489
C          0.04370        1.46690       -0.36750
C         -0.12860        0.07030        0.16810
O          0.99560       -0.82890        0.13980
C          0.43070       -0.50750        1.40500
C          1.35230        0.09430        2.46680
N          2.26050       -0.90190        3.05380
C          2.17360        1.22550        2.00900
N          2.83260        2.11530        1.68120
H          0.98950        1.91830       -0.07440
H         -0.00340        1.44180       -1.46110
H         -0.77670        2.10230       -0.01620
H         -1.05100       -0.41150       -0.16640
H         -0.14380       -1.32510        1.85360
H          0.71640        0.47310        3.27810
H          1.71160       -1.63510        3.49360
H          2.79430       -1.34060        2.30750
