15
gdb 18000	4.3863	1.63897	1.4053	4.2463	61.14	-0.239	-0.0288	0.2102	878.3588	0.118862	-399.745728	-399.738756	-399.737812	-399.777628	25.427
O         -0.70390        0.70430        0.41300
C          0.30090        0.71570       -0.25020
C          1.42400        1.71450       -0.05450
N          2.75340        1.26760       -0.55010
C          2.93440        2.50340       -1.35110
C          2.45500        2.31450       -2.79990
O          1.07740        2.56670       -2.40330
C          1.46880        2.90460       -1.06330
H          0.47960       -0.00580       -1.07510
H          1.40600        2.07740        0.98030
H          3.44230        1.13150        0.17880
H          3.81960        3.10710       -1.14950
H          2.80100        3.07590       -3.50990
H          2.59600        1.31200       -3.21470
H          1.08330        3.87110       -0.73490
