14
gdb 18426	3.9777	1.50951	1.3536	3.366	63.56	-0.2551	-0.0409	0.2142	910.2983	0.106185	-382.534085	-382.527134	-382.52619	-382.565664	25.587
O         -0.02730        0.05050        0.38980
C         -0.01640        1.19510        0.01240
C          1.23070        2.00660       -0.07800
C          1.55780        2.97130       -1.18110
C          0.30190        3.64010       -1.76190
C          0.03500        4.19300       -0.33330
O         -0.72920        5.00460        0.10010
C          1.25950        3.51510        0.22770
H         -0.95650        1.71250       -0.27520
H          2.09050        1.48040        0.32710
H          2.52310        2.93630       -1.66830
H          0.54060        4.47410       -2.42860
H         -0.45320        3.01180       -2.23870
H          1.91230        3.89020        1.00590
