13
gdb 14592	8.24468	0.85754	0.7836	3.7404	63.92	-0.2757	-0.0307	0.245	1335.4549	0.092443	-398.577922	-398.56949	-398.568546	-398.611774	28.274
O          0.03970        0.25970       -0.42890
C          0.28160        1.41830       -0.30960
O          1.14130        1.85790        0.67190
C          1.52330        3.17110        0.69150
N          1.41270        3.93230       -0.30210
C          1.84420        5.32400       -0.20060
C          2.40280        5.76790        1.07770
C          2.85830        6.11170        2.13570
H         -0.13060        2.24150       -0.90630
H          1.94110        3.42310        1.66710
H          2.57800        5.49330       -0.99880
H          0.98220        5.95180       -0.45960
H          3.26450        6.43450        3.06280
