16
gdb 1802	3.85514	2.60329	1.78925	3.4827	61.08	-0.2424	0.0348	0.2772	734.9678	0.136146	-325.808092	-325.80023	-325.799286	-325.840103	28.607
C          0.01880        1.46650       -0.10260
C          0.08680       -0.04810       -0.10640
C          1.45440       -0.71170       -0.16450
C          0.67290       -0.74920        1.10960
C         -1.00000       -0.83460       -0.79560
N         -1.99730       -0.10460       -1.37670
O         -1.00060       -2.05420       -0.82660
H          0.87010        1.88590        0.44090
H          0.05290        1.88070       -1.11790
H         -0.88990        1.83330        0.38960
H          1.51640       -1.63050       -0.73450
H          2.31570       -0.05580       -0.23150
H          0.98670       -0.11930        1.93500
H          0.21690       -1.69260        1.38350
H         -1.98480        0.89710       -1.42930
H         -2.70700       -0.60910       -1.88130
