15
gdb 2480	5.53978	2.4637	2.28634	1.9142	61.49	-0.2247	0.0101	0.2348	648.5974	0.125896	-308.473229	-308.467332	-308.466388	-308.502667	23.054
C         -0.04350        1.45720        0.04740
C         -0.01180       -0.02840       -0.01590
C         -0.05770       -0.90130       -1.02700
C          0.02840       -2.24580       -0.28330
C         -1.00950       -2.04100        0.86120
C          0.09670       -0.99460        1.19030
O          1.07770       -1.97030        0.70870
H          0.86480        1.85450        0.51830
H         -0.12960        1.89920       -0.94910
H         -0.88830        1.81490        0.65010
H         -0.13430       -0.74250       -2.09280
H          0.15640       -3.17610       -0.83500
H         -2.01170       -1.68990        0.60580
H         -1.02870       -2.87070        1.57210
H          0.29390       -0.60180        2.18790
