12
gdb 698	8.63601	4.17475	4.17436	1.5668	49.54	-0.2251	0.0625	0.2876	396.1319	0.09889	-265.283843	-265.279706	-265.278762	-265.310999	16.494
N         -0.11190        1.57630       -0.04500
C          1.36320        1.31050        0.00880
C          1.26290        0.03350        0.91920
N          1.97200       -0.88680       -0.02920
C          1.23090        0.06220       -0.92280
C         -0.00960        0.08140        0.01270
H         -0.43610        1.93950        0.85550
H          2.12130        2.09660       -0.00110
H          1.32810       -0.04920        2.00630
H          2.97280       -0.67190       -0.04450
H          1.25140        0.02170       -2.01140
H         -0.86590       -0.59220        0.00760
