22
gdb 6410	4.17422	0.89703	0.87832	2.3526	74.72	-0.2554	0.0605	0.3159	1434.0297	0.198244	-387.345208	-387.335001	-387.334057	-387.380554	37.205
C          0.90360       -0.31400       -1.10270
C          0.02500       -0.01620        0.12000
C         -0.00030        1.48940        0.41490
C         -1.40870       -0.55520       -0.04790
C         -1.53060       -2.07810       -0.09280
O         -0.98930       -2.70200        1.08180
C         -2.97240       -2.55840       -0.28060
O         -3.04370       -3.96690       -0.24810
H          1.91360        0.08380       -0.96000
H          0.99820       -1.38740       -1.29020
H          0.48920        0.15060       -2.00590
H          0.46580       -0.52870        0.98450
H         -0.58860        1.71410        1.31110
H          1.01130        1.87770        0.57230
H         -0.44180        2.04660       -0.42040
H         -2.03180       -0.18520        0.78090
H         -1.85210       -0.14070       -0.96430
H         -0.93130       -2.49050       -0.91180
H         -1.39620       -2.27940        1.84810
H         -3.60800       -2.10330        0.50250
H         -3.36290       -2.22790       -1.24960
H         -2.43120       -4.23280        0.45060
