13
gdb 20500	9.30771	1.00205	0.9098	4.2116	72.81	-0.229	-0.0068	0.2222	1214.6319	0.096379	-357.622798	-357.615354	-357.61441	-357.656672	25.448
C         -0.06260        1.46440        0.01030
C          0.00330        0.01210        0.00250
C          0.05140       -1.19240       -0.00400
C          0.09920       -2.60420       -0.01140
C          1.20220       -3.43610       -0.02210
N          0.67540       -4.67870       -0.02540
N         -0.67320       -4.64570       -0.01740
N         -1.02720       -3.39910       -0.00890
H          0.94010        1.90560        0.00290
H         -0.59930        1.84150       -0.86740
H         -0.58250        1.83280        0.90170
H          2.26040       -3.24070       -0.02730
H          1.14760       -5.56870       -0.03270
