18
gdb 18300	2.95029	2.17743	1.92423	2.4044	66.35	-0.2296	0.0736	0.3032	804.5037	0.156741	-384.925338	-384.918582	-384.917638	-384.955943	27.259
O          0.08660        1.38840        0.07910
C          0.00860       -0.00270        0.01600
C         -1.32740       -0.71960        0.03920
C         -2.59590        0.12930        0.06390
C         -2.96450        0.64420       -1.32950
O         -1.81790        1.15390       -2.01020
C         -0.93840        0.10090       -2.40520
C         -0.46050       -0.71670       -1.22200
H         -0.52290        1.74670       -0.58280
H          0.82200       -0.44510        0.58200
H         -1.37010       -1.64800        0.59950
H         -3.43260       -0.45150        0.46410
H         -2.44830        0.98390        0.73570
H         -3.41250       -0.15930       -1.93460
H         -3.67970        1.46950       -1.27610
H         -1.45030       -0.54680       -3.13480
H         -0.10120        0.58940       -2.91500
H          0.03710       -1.64310       -1.49470
