13
gdb 17167	4.51742	1.9287	1.59906	4.1644	59.06	-0.2452	-0.0416	0.2036	773.0559	0.094575	-398.475896	-398.469687	-398.468743	-398.506456	23.335
O          0.02790       -0.02550        0.04510
C          0.08530        1.17550       -0.00380
C          1.35020        1.95470       -0.00340
O          2.65230        1.32950        0.05750
C          2.96640        2.75090        0.00520
C          1.79740        3.11110       -0.97150
N          1.18030        4.16100       -0.10190
C          1.74840        3.19020        0.88500
H         -0.81940        1.81900       -0.05460
H          4.01300        3.05640        0.01980
H          1.77270        3.12200       -2.06110
H          1.74010        5.01660       -0.12360
H          1.66660        3.29360        1.96690
