19
gdb 7565	3.17442	1.61568	1.52006	3.3883	70.98	-0.2381	0.034	0.2721	955.6011	0.164935	-365.093815	-365.084934	-365.08399	-365.127581	32.767
C         -0.10830        1.56580        0.14100
C         -0.02480        0.03770        0.03500
C          1.09100       -0.44740       -0.95380
C          2.00920       -0.72830        0.26670
C          0.77430       -0.61100        1.20030
C         -1.42130       -0.54220       -0.17240
N         -1.93410       -0.37040       -1.43010
O         -2.05090       -1.08760        0.71380
H          0.88440        1.99410        0.31530
H         -0.51250        2.01200       -0.77380
H         -0.75450        1.85920        0.97470
H          0.80910       -1.36340       -1.48120
H          1.44420        0.28300       -1.68830
H          2.54040       -1.68230        0.26850
H          2.73970        0.06830        0.42920
H          0.88650       -0.00660        2.10370
H          0.34830       -1.57550        1.48140
H         -1.36350       -0.05670       -2.19550
H         -2.82120       -0.79860       -1.63960
