17
gdb 11319	4.26188	1.52621	1.20129	2.8616	76.03	-0.2309	-0.0243	0.2066	1027.2765	0.141866	-363.890163	-363.882064	-363.88112	-363.923309	29.077
C         -0.03050        1.44240       -0.03040
N         -0.07530       -0.00900       -0.04480
C          0.50700       -0.64190       -0.97020
O          1.20950       -0.07810       -2.01590
C          1.73520       -1.11050       -2.86720
C          3.25200       -0.97010       -2.98110
C          1.26480       -2.38840       -2.22480
C          0.56240       -2.09980       -1.13030
H          0.63500        1.88450       -0.78040
H         -1.04220        1.83650       -0.18860
H          0.28380        1.77910        0.96410
H          1.28360       -0.97990       -3.86200
H          3.72190       -1.09430       -2.00160
H          3.65250       -1.72840       -3.66140
H          3.51090        0.01680       -3.37340
H          1.49530       -3.36620       -2.62680
H          0.08790       -2.77250       -0.43140
