20
gdb 19733	3.67864	2.34326	2.14117	0.1051	76.79	-0.2757	0.0906	0.3663	765.3252	0.182465	-311.875543	-311.869826	-311.868881	-311.904878	25.292
C         -0.03990        1.56950        0.04640
C          1.50630        1.41880        0.00990
C          1.76610        0.79000        1.39340
C          0.81160       -0.43930        1.25420
C          1.63860       -1.62130        0.71640
C          2.16640       -1.07620       -0.64570
C          1.27240        0.14750       -0.89000
C          0.00170        0.02640        0.00700
H         -0.48550        2.06720        0.91370
H         -0.44830        1.99240       -0.87520
H          2.15810        2.23520       -0.30570
H          2.80610        0.49180        1.55870
H          1.48070        1.46860        2.20300
H          0.22730       -0.66730        2.14770
H          2.43900       -1.91870        1.40110
H          1.00020       -2.49840        0.55860
H          3.22670       -0.80500       -0.60010
H          2.06370       -1.81470       -1.44640
H          1.08390        0.40270       -1.93420
H         -0.85930       -0.58120       -0.27690
