22
gdb 11617	5.05835	0.83612	0.75884	1.684	79.18	-0.2619	0.0848	0.3468	1555.373	0.198549	-350.193682	-350.184013	-350.183069	-350.228843	34.824
C         -0.24710        1.56620        0.05870
C          0.02810        0.05680       -0.00160
C         -1.28530       -0.73320        0.07890
C          0.82180       -0.34890       -1.25630
C          2.24250        0.22790       -1.34150
C          2.99200       -0.29020       -2.54450
C          4.42820       -0.59040       -2.51700
O          3.46110       -1.64140       -2.47330
H          0.67490        2.15480        0.07670
H         -0.83350        1.89010       -0.81010
H         -0.81830        1.82410        0.95660
H          0.63510       -0.21120        0.87580
H         -1.93270       -0.50440       -0.77630
H         -1.10250       -1.81290        0.07730
H         -1.84160       -0.48700        0.98940
H          0.89970       -1.44250       -1.29030
H          0.25380       -0.05380       -2.15080
H          2.21420        1.32340       -1.39590
H          2.80420       -0.03450       -0.43640
H          2.55220       -0.03510       -3.51160
H          5.01640       -0.53220       -3.43210
H          4.98990       -0.43430       -1.59640
