15
gdb 20859	5.17899	1.37829	1.15962	2.6907	63.52	-0.2407	0.0103	0.251	1025.9978	0.119851	-396.002788	-395.99514	-395.994196	-396.034995	27.871
C         -0.05610        1.52630       -0.14270
C         -0.03870        0.01110        0.11120
C         -1.40840       -0.58530        0.08890
N         -1.91720       -1.18090        1.13480
O         -3.20790       -1.57930        0.67840
C         -3.28670       -1.16010       -0.58660
N         -4.45290       -1.37170       -1.24970
N         -2.22210       -0.54430       -1.02230
H          0.96330        1.92230       -0.15980
H         -0.53130        1.75140       -1.10100
H         -0.61130        2.04780        0.64270
H          0.56170       -0.48220       -0.66220
H          0.41890       -0.21700        1.07760
H         -5.04190       -2.11220       -0.90370
H         -4.39630       -1.28690       -2.25180
