18
gdb 11285	4.53689	1.30654	1.10406	5.1209	72.27	-0.242	0.0305	0.2725	1089.175	0.155652	-344.00698	-343.998962	-343.998018	-344.040385	29.59
C         -0.12810        1.49270        0.01250
C          0.03660       -0.02070       -0.01990
C          0.80590       -0.57850       -1.22950
C          1.25280       -1.95590       -0.72770
C          1.56980       -1.69090        0.77540
N          0.77340       -0.51150        1.16420
C          1.26260       -2.86030        1.61670
N          1.03750       -3.79010        2.26510
H          0.84670        1.99390       -0.03140
H         -0.72070        1.83590       -0.84040
H         -0.63680        1.81050        0.92760
H         -0.96340       -0.47860       -0.00780
H          0.19960       -0.63580       -2.13770
H          1.67500        0.05720       -1.44270
H          0.43560       -2.67810       -0.81110
H          2.11540       -2.36860       -1.25440
H          2.64180       -1.49140        0.89590
H          1.38070        0.21250        1.52720
