18
gdb 14516	3.76733	1.76255	1.48827	1.7573	67.36	-0.2527	0.0766	0.3293	907.8261	0.153133	-384.872493	-384.864984	-384.864039	-384.904179	29.507
C          0.71270       -0.51220       -1.43270
C         -0.03060       -0.06410       -0.16770
C          0.64040       -0.55290        1.10500
O          1.90030        0.04210        1.17820
C         -0.12160       -0.66120        2.47530
C         -0.88810       -1.90510        1.98360
C          0.58920       -2.05530        1.57230
O          0.96940       -1.57230        2.93320
H          0.70920       -1.60350       -1.52990
H          0.24080       -0.09750       -2.32820
H          1.75270       -0.18010       -1.40450
H         -0.04820        1.03110       -0.12180
H         -1.07150       -0.39370       -0.20840
H          2.28730       -0.30680        1.99540
H         -0.43090        0.12340        3.16730
H         -1.19110       -2.57840        2.78490
H         -1.65170       -1.79750        1.21320
H          1.12380       -2.92760        1.19390
