19
gdb 20089	3.23567	1.62	1.33907	2.7171	72.48	-0.2258	0.0785	0.3042	998.9818	0.16465	-365.008405	-364.999918	-364.998973	-365.041593	31.419
C         -0.13490        1.49910       -0.00210
C          0.01430       -0.00550       -0.01580
C          1.35840       -0.65820       -0.27220
O          2.50290        0.12630       -0.39560
C          0.72470       -0.76480        1.09660
N          1.40550       -0.00420        2.11150
C          0.71920        0.20330        3.38430
C          1.87330       -0.73230        3.28860
H          0.79520        1.98810        0.29170
H         -0.39800        1.86250       -1.00090
H         -0.92180        1.81970        0.68900
H         -0.83870       -0.54040       -0.42730
H          1.39920       -1.53880       -0.90660
H          2.67020        0.48160        0.49050
H          0.29440       -1.71700        1.41440
H          0.84090        1.18490        3.83300
H         -0.27070       -0.23320        3.49680
H          1.66160       -1.79860        3.33740
H          2.84910       -0.44390        3.66810
