20
gdb 16610	2.95327	2.07458	1.37166	0.1309	81.73	-0.208	0.0341	0.2421	972.0753	0.17738	-311.884616	-311.876572	-311.875628	-311.916511	31.164
C          0.07890        1.50570        0.13190
C          0.00930        0.01510        0.01050
C         -0.04410       -0.73310       -1.10430
C         -0.08080       -0.28220       -2.53200
C         -0.01880       -2.19440       -0.77630
C          1.24880       -2.68420       -0.10150
C          0.06270       -2.27890        0.73500
C          0.00860       -0.84890        1.26260
H          1.00730        1.82280        0.62520
H          0.03080        2.00850       -0.83710
H         -0.74420        1.88900        0.74970
H         -0.10850        0.80570       -2.62940
H          0.79430       -0.64880       -3.08400
H         -0.96220       -0.68620       -3.04680
H         -0.59900       -2.89140       -1.37310
H          1.47190       -3.74520       -0.15410
H          2.11920       -2.03550       -0.13110
H         -0.46150       -3.05710        1.27700
H          0.85310       -0.61090        1.92440
H         -0.89980       -0.67380        1.85750
