15
gdb 20600	3.38855	2.01185	1.27899	3.6916	64.93	-0.2111	0.0156	0.2267	916.2659	0.119526	-395.978521	-395.970404	-395.96946	-396.010812	29.564
C          0.04350        1.48940       -0.03500
C         -0.06420        0.00680       -0.03930
C         -1.11930       -0.84890        0.04280
N         -2.51240       -0.63490        0.10640
C         -0.51050       -2.14180       -0.03460
N         -1.19640       -3.34080        0.06850
N          0.79430       -2.06890       -0.15230
O          1.08300       -0.69520       -0.16450
H          0.83850        1.81580        0.64260
H          0.27420        1.88610       -1.03040
H         -0.89650        1.93800        0.29930
H         -2.75560        0.34170       -0.00650
H         -2.90540       -0.96050        0.98450
H         -2.09550       -3.30980       -0.39600
H         -0.64700       -4.13600       -0.23010
