20
gdb 16227	2.8798	2.14333	1.51493	0.0681	79.57	-0.2342	0.0291	0.2632	922.1917	0.17794	-311.871633	-311.863965	-311.863021	-311.903401	30.372
C         -0.15420        1.55400       -0.02040
C         -0.00360        0.02170        0.00940
C          0.85170       -0.47390       -1.13740
C          2.02650       -0.95390       -0.73430
C          2.17650       -0.90200        0.76660
C          0.76110       -0.52810        1.23350
C          0.50400       -0.04830        2.63600
C          0.05420       -1.42720        2.21770
H          0.82110        2.04510        0.05700
H         -0.62020        1.87950       -0.95690
H         -0.78100        1.91080        0.80310
H         -1.01120       -0.41400       -0.03610
H          0.53160       -0.38440       -2.17050
H          2.81120       -1.32150       -1.38660
H          2.51450       -1.85460        1.19350
H          2.92640       -0.15240        1.06020
H          1.35140        0.03230        3.30980
H         -0.25670        0.70870        2.79630
H         -1.01050       -1.59420        2.08470
H          0.59320       -2.28490        2.60810
