20
gdb 5875	4.10287	0.97625	0.96245	3.1413	72.32	-0.2532	-0.0238	0.2294	1309.5908	0.17199	-386.149455	-386.139216	-386.138272	-386.185667	35.847
C         -0.13550        1.56350        0.13040
C          0.02750        0.03740        0.06320
C          0.78680       -0.49070        1.28980
C         -1.34160       -0.63920       -0.04640
O          0.69020       -0.35290       -1.15570
C          1.99690        0.10360       -1.38580
C          2.44300       -0.45410       -2.72830
O          3.52250       -0.24300       -3.21320
H          0.82410        2.07540        0.24980
H         -0.61650        1.93560       -0.77910
H         -0.75970        1.83880        0.98570
H          0.20550       -0.31110        2.19910
H          0.95640       -1.56760        1.19830
H          1.75440        0.00320        1.41940
H         -1.86770       -0.28640       -0.93770
H         -1.22260       -1.72310       -0.12690
H         -1.95510       -0.41900        0.83180
H          2.07090        1.20110       -1.43340
H          2.71510       -0.23460       -0.62290
H          1.67150       -1.08200       -3.22610
