14
gdb 17422	3.02045	2.78088	1.84707	3.2945	60.74	-0.2276	-0.0021	0.2255	731.531	0.105991	-382.492194	-382.485609	-382.484665	-382.522722	25.324
C         -0.09490        1.54780        0.06100
C          0.06300        0.06560        0.09190
O         -1.17700       -0.70900        0.16570
C         -0.40890       -1.74190        0.78360
C          0.89670       -1.91870        0.00430
C          0.72380       -0.88350        1.17400
C          0.90750       -0.74960       -0.92950
O          1.51930       -0.45280       -1.91540
H          0.88260        2.02910       -0.03400
H         -0.69880        1.83050       -0.80670
H         -0.59080        1.91290        0.96410
H         -0.91690       -2.55790        1.28040
H          1.48350       -2.82610       -0.00230
H          1.34270       -0.73510        2.04610
