15
gdb 15217	2.5781	2.06916	1.66556	1.3708	69.66	-0.236	-0.0421	0.1939	852.2126	0.11589	-362.597124	-362.58875	-362.587806	-362.629787	29.841
C         -0.31280        1.43900        0.14170
N          0.03360        0.02300        0.00560
C          0.50780       -0.51500       -1.27010
C          0.76490        0.29710       -2.49300
O          1.05690        1.46850       -2.52600
C          1.42610       -0.38180       -0.05320
C          2.51190        0.55660       -0.02960
C          3.44040        1.31570        0.05270
H          0.34540        2.12130       -0.40090
H         -1.33680        1.56990       -0.21920
H         -0.29290        1.67890        1.20850
H          0.13690       -1.51550       -1.48760
H          0.65900       -0.29210       -3.43160
H          1.63200       -1.31450        0.46990
H          4.25500        1.99540        0.10470
