19
gdb 1750	5.03099	1.49612	1.3424	1.7103	67.57	-0.2586	0.0878	0.3464	983.3492	0.16985	-310.911571	-310.903132	-310.902188	-310.944459	30.425
C          0.13710        1.57110        0.02500
C          0.22100        0.04260        0.04300
C          0.42750       -0.55280       -1.35740
C          0.60770       -2.06120       -1.36350
C         -0.57170       -2.90130       -0.92050
C          1.61550       -2.65880       -2.25320
O          1.87950       -2.50530       -0.85660
H          1.05330        2.01300       -0.38230
H         -0.69880        1.91600       -0.59430
H         -0.00710        1.97390        1.03230
H          1.05080       -0.27800        0.68380
H         -0.69330       -0.36400        0.49180
H         -0.42380       -0.29190       -2.00120
H          1.31580       -0.09660       -1.80980
H         -1.44160       -2.71810       -1.56080
H         -0.32360       -3.96450       -0.96640
H         -0.85820       -2.66680        0.10930
H          1.49470       -3.68640       -2.59560
H          2.20250       -2.02100       -2.91370
