22
gdb 15191	8.56212	0.6373	0.62198	0.9473	80.12	-0.2497	0.0912	0.3409	1854.6887	0.19916	-350.18358	-350.17387	-350.172926	-350.219086	34.176
C          0.01450        1.34780        0.12880
O         -0.01820       -0.05580        0.19540
C         -1.30010       -0.58850       -0.05940
C         -1.22840       -2.10620        0.03110
C         -2.57940       -2.78170       -0.23510
C         -2.51060       -4.29210       -0.15390
C         -2.64300       -4.99290        1.17550
C         -3.74350       -5.10400        0.14730
H          1.03950        1.66390        0.33870
H         -0.27370        1.71860       -0.86840
H         -0.65780        1.81020        0.86990
H         -2.03040       -0.19340        0.66970
H         -1.65140       -0.27820       -1.06000
H         -0.48180       -2.46350       -0.68880
H         -0.86040       -2.38410        1.02550
H         -3.32220       -2.41740        0.48800
H         -2.94930       -2.48430       -1.22640
H         -1.80950       -4.74210       -0.85340
H         -2.02770       -5.86460        1.36930
H         -2.83150       -4.38140        2.05240
H         -4.66830       -4.56830        0.33640
H         -3.87840       -6.05120       -0.36330
