14
gdb 9116	3.92281	0.96364	0.78107	4.0194	77.35	-0.265	-0.0767	0.1882	1404.2014	0.104011	-345.355444	-345.34644	-345.345495	-345.391131	30.347
C         -0.02950        1.57270        0.02370
C          0.02290        0.03530       -0.03310
C          0.69730       -0.47970       -1.21520
C          1.25920       -0.89550       -2.20030
C          1.92660       -1.41100       -3.36980
O          2.06740       -2.59880       -3.58970
C          2.42550       -0.39490       -4.27890
C          2.84320        0.43920       -5.03940
H          0.97800        1.99620        0.02880
H         -0.56250        1.97580       -0.84120
H         -0.54620        1.89810        0.93080
H          0.53000       -0.35740        0.85780
H         -0.99380       -0.37760       -0.00280
H          3.21480        1.16990       -5.71590
