20
gdb 14047	4.29205	1.60361	1.49009	1.4086	74.57	-0.2337	0.0813	0.315	946.8603	0.17896	-349.008299	-349.000923	-348.999979	-349.040127	28.785
C          0.20580        1.41510       -0.51170
C          1.44050        1.57310        0.41600
C          1.28650        0.07210        0.80700
C         -0.16410        0.12260        0.26720
C          2.24970       -0.89040        0.09840
C          3.35420       -1.06810        1.14810
C          2.53530       -1.06120        2.44360
O          1.40870       -0.22090        2.19400
H         -0.52590        2.22500       -0.51020
H          0.48840        1.20640       -1.54710
H          2.38840        1.89300       -0.02710
H          1.21980        2.20360        1.28120
H         -0.85850        0.32790        1.08610
H         -0.52360       -0.74250       -0.29720
H          1.74780       -1.84710       -0.09010
H          2.60960       -0.50540       -0.85870
H          3.94000       -1.98140        1.01910
H          4.04360       -0.21720        1.12680
H          2.19040       -2.07470        2.69870
H          3.08820       -0.66800        3.30370
