16
gdb 3608	4.06263	4.06168	2.8615	1.6943	62.48	-0.2197	0.075	0.2946	562.6006	0.140153	-288.584832	-288.579733	-288.578788	-288.613285	21.132
C         -0.04910        1.53020        0.03010
C          1.49190        1.51000        0.02740
C          2.13630        1.17580        1.38680
C          1.79500       -0.29980        1.10250
C          0.32060       -0.68030        1.34310
C          0.00420       -0.00990       -0.00830
N          1.49790        0.02510       -0.37050
H         -0.55920        2.01030        0.87110
H         -0.44520        1.94100       -0.90230
H          2.00830        2.22350       -0.61850
H          3.21600        1.34660        1.37010
H          1.72050        1.64060        2.28630
H          2.55650       -1.05010        1.32640
H          0.17380       -1.76260        1.29770
H         -0.17390       -0.29550        2.24050
H         -0.68280       -0.52550       -0.68280
