18
gdb 12203	3.17844	1.62254	1.38429	1.8543	73.39	-0.2498	0.0251	0.275	982.3027	0.15161	-347.757343	-347.7486	-347.747656	-347.791633	32.041
C          0.34020        1.50360       -0.25700
C          0.06580        0.04640        0.05710
O          0.80380       -0.84670       -0.81570
C          1.35340       -1.58640        0.29960
C          2.80470       -1.67300        0.27580
C          4.00430       -1.75510        0.26830
C          0.67960       -0.61620        1.32390
C          1.58360        0.20570        2.22950
H          1.40540        1.73690       -0.18580
H          0.01290        1.72510       -1.27770
H         -0.21260        2.15860        0.42530
H         -1.01220       -0.15000       -0.03090
H          0.93410       -2.60140        0.33430
H          5.06370       -1.82910        0.25280
H         -0.07290       -1.13170        1.92570
H          2.39070        0.68960        1.67450
H          1.00960        0.97970        2.74940
H          2.04670       -0.43330        2.98780
