20
gdb 6505	2.84912	1.78501	1.36141	0.8193	82.19	-0.2352	0.056	0.2913	1009.4639	0.173766	-311.836502	-311.826969	-311.826025	-311.869636	36.151
C         -0.05640        1.52730       -0.02600
C         -0.00320        0.00970       -0.00730
C         -1.24780       -0.62970       -0.59550
C          1.31690       -0.67760       -0.23510
C          0.69960       -0.70550        1.16250
C          1.37060        0.08370        2.28200
C          0.14770       -1.95510        1.62040
C         -0.29620       -2.98700        2.05330
H          0.86990        1.99280        0.31590
H         -0.23880        1.87870       -1.04830
H         -0.87410        1.90210        0.60040
H         -1.37280       -0.32240       -1.64030
H         -1.20180       -1.71970       -0.56190
H         -2.14460       -0.31840       -0.04730
H          1.32790       -1.60410       -0.79840
H          2.20500       -0.06530       -0.35830
H          1.86900        0.98020        1.90820
H          0.64180        0.38740        3.04040
H          2.12530       -0.53640        2.77520
H         -0.69020       -3.90070        2.42330
