11
gdb 23758	3.33867	2.26153	1.34826	1.1562	55.13	-0.2673	-0.0313	0.236	789.8713	0.072672	-446.697571	-446.691773	-446.690829	-446.727628	21.812
F          0.02330        0.01850        0.00320
C         -0.02050        1.34420        0.01080
C         -1.22470        2.02670        0.03020
C         -1.18350        3.41970        0.03700
N         -0.05470        4.13100        0.02600
C          1.09840        3.45900        0.00730
C          1.16520        2.07360       -0.00090
F          2.33530        1.44160       -0.01960
H         -2.15930        1.47910        0.03960
H         -2.11030        3.98620        0.05220
H          2.02250        4.03110       -0.00180
