16
gdb 17039	3.73499	1.734	1.40572	3.5883	65.37	-0.2509	-0.0306	0.2203	891.6109	0.130148	-383.685564	-383.678381	-383.677437	-383.717098	27.177
O          0.02200        1.36460       -0.37510
C         -0.01260       -0.00480       -0.10670
C          0.08420       -0.54620        1.35790
C         -1.39390       -0.09370        1.55650
C         -1.36420       -0.75970        0.14420
C         -0.52490       -1.88980        0.80280
C          0.31670       -2.83540       -0.00800
O          0.39630       -2.85660       -1.21150
H         -0.57460        1.83080        0.21860
H          0.65130       -0.46470       -0.83570
H          0.91070       -0.45150        2.06340
H         -1.96350       -0.61290        2.33140
H         -1.59230        0.98020        1.61210
H         -2.19420       -0.89130       -0.54940
H         -1.04070       -2.46050        1.58430
H          0.88180       -3.57230        0.61030
