16
gdb 2716	8.31652	0.94886	0.91489	3.3611	58.96	-0.251	0.0328	0.2838	1222.2008	0.136106	-362.932378	-362.92387	-362.922926	-362.966671	28.337
O         -0.13760        1.38200        0.38980
C          0.00310        0.01940        0.02120
C         -1.38380       -0.61080        0.04050
C         -1.36340       -2.07800       -0.39740
N         -2.68510       -2.68400       -0.38020
C         -3.02060       -3.71900        0.43600
O         -2.27130       -4.27680        1.20950
H          0.73780        1.77880        0.41680
H          0.44390       -0.07830       -0.98520
H          0.66480       -0.51920        0.71860
H         -1.79990       -0.53330        1.05050
H         -2.03730       -0.02660       -0.62000
H         -0.93140       -2.16680       -1.40320
H         -0.75110       -2.67970        0.27880
H         -3.40610       -2.29020       -0.96410
H         -4.08310       -4.00860        0.31020
