16
gdb 13555	4.35913	1.35014	1.16924	2.6798	66.57	-0.233	0.0177	0.2507	1020.262	0.128566	-383.674691	-383.666385	-383.665441	-383.707385	31.328
O         -0.46910        1.23690        0.08840
C         -0.07580       -0.14530        0.03480
C          0.74140       -0.40760       -1.15070
C          1.43730       -0.59820       -2.11210
C          0.62480       -0.60700        1.31200
C          1.48310        0.34820        2.12410
C          0.15200       -0.12240        2.65990
O         -0.93710        0.73220        2.80270
H          0.29840        1.76740       -0.15330
H         -1.02310       -0.69110       -0.05730
H          2.04130       -0.77450       -2.96800
H          0.96270       -1.63730        1.24530
H          2.40520       -0.02150        2.55920
H          1.52780        1.38340        1.80040
H          0.16890       -0.83950        3.47480
H         -1.01110        1.24330        1.98380
