17
gdb 8162	2.83774	2.63716	1.75081	3.5197	67.84	-0.2364	0.0225	0.259	796.3468	0.143809	-363.881979	-363.875063	-363.874119	-363.912671	27.497
C         -0.02770        1.54530        0.01870
C          0.05040        0.04200        0.00910
C          0.99000       -0.80140       -0.92320
C          0.60820       -1.92180        0.07490
C          0.64350       -0.83220        1.18520
N         -0.83580       -2.05070       -0.23240
C         -1.27520       -0.72710       -0.16740
O         -2.40600       -0.31000       -0.19240
H          0.95240        1.99530        0.20460
H         -0.40100        1.91960       -0.93990
H         -0.72050        1.88940        0.79280
H          0.69590       -0.94060       -1.96580
H          2.03380       -0.48910       -0.84390
H          1.13080       -2.87430        0.13660
H          1.65150       -0.51740        1.46810
H          0.02410       -0.99030        2.07260
H         -1.39880       -2.76960        0.20000
