17
gdb 10937	4.36671	1.45146	1.33659	1.8866	74.95	-0.2357	0.0354	0.2711	980.5232	0.140963	-326.649777	-326.64199	-326.641046	-326.681558	29.987
C          0.03990        1.53000        0.05300
C         -0.03850        0.03540       -0.03550
C         -0.88140       -0.79940        0.84310
N          0.58760       -0.88810        1.00430
C          1.03710       -1.79490       -0.13080
C          0.49440       -0.79630       -1.20180
C          2.46960       -2.01210       -0.14340
C          3.65740       -2.19230       -0.17900
H          1.03320        1.89050       -0.23460
H         -0.69560        1.99730       -0.61270
H         -0.16260        1.86890        1.07300
H         -1.36420       -0.31520        1.68660
H         -1.42200       -1.65710        0.44530
H          0.51800       -2.76040       -0.10270
H         -0.23580       -1.17630       -1.92180
H          1.30690       -0.30470       -1.73860
H          4.70660       -2.35470       -0.19820
