13
gdb 14606	8.89247	0.65539	0.65221	3.9073	68.05	-0.2696	-0.07	0.1996	1612.2711	0.093528	-398.594376	-398.585643	-398.584698	-398.629899	27.954
O          0.17810        0.43340       -1.19480
C          0.09550        1.34310       -0.39960
N          1.10260        1.75120        0.42370
C          2.42190        1.13900        0.37600
C          3.49180        2.09550        0.12520
C          4.39120        2.88040       -0.05780
C          5.43940        3.84070       -0.29520
O          6.62020        3.60160       -0.19440
H         -0.82330        1.94160       -0.25120
H          0.95430        2.54370        1.02770
H          2.63380        0.59290        1.30510
H          2.37880        0.39580       -0.42850
H          5.07320        4.84610       -0.58620
