18
gdb 10771	2.74037	1.97662	1.41882	2.2959	67.63	-0.2465	-0.0233	0.2232	936.5481	0.151825	-384.95064	-384.941754	-384.94081	-384.983764	32.187
C         -0.17670        1.48790        0.20930
C         -0.01860       -0.01690        0.03250
C          0.84100       -0.46680       -1.21400
C          0.96160        0.38150       -2.46990
C          2.01210       -0.49080       -0.22920
O          3.15500       -0.12190       -0.28790
C          1.08940       -0.63450        0.97760
O          1.47180        0.00660        2.15580
H          0.78270        2.01160        0.13640
H         -0.84520        1.90720       -0.54830
H         -0.59070        1.70950        1.19660
H         -0.98520       -0.51930        0.10690
H          0.56530       -1.49640       -1.47120
H          1.26220        1.40590       -2.23520
H          1.71880       -0.03780       -3.13910
H          0.01300        0.41850       -3.01450
H          0.84780       -1.68500        1.18400
H          2.31300        0.44550        1.97450
