14
gdb 4478	3.61312	1.81145	1.2157	1.6176	60.53	-0.178	0.0565	0.2345	931.379	0.107576	-415.90902	-415.901174	-415.90023	-415.940818	28.797
C         -0.08510        1.55010        0.11310
C          0.00800        0.07090       -0.00100
C          0.07730       -0.77610       -1.06960
O          0.07660       -0.42760       -2.37860
N          0.15300       -2.10020       -0.69090
C          0.12950       -2.05670        0.61800
O          0.18100       -3.10620        1.45630
N          0.04430       -0.80250        1.10530
H          0.76570        1.98890        0.65150
H         -0.09600        1.98160       -0.89050
H         -0.99990        1.87990        0.62370
H          0.13530       -1.24960       -2.87810
H          0.23840       -3.89460        0.90300
H          0.01310       -0.54820        2.07740
