19
gdb 12740	3.1461	2.08293	1.60765	2.2882	71.57	-0.2065	0.0688	0.2753	882.3717	0.164703	-365.011711	-365.003762	-365.002818	-365.043542	30.213
C         -0.11030        1.55900       -0.00370
N          0.03400        0.12680        0.10770
C         -1.18460       -0.68390        0.31730
C         -0.43140       -1.54160        1.34880
O          0.40490       -2.56290        0.77840
C          1.57000       -1.69970        0.79570
C          0.72140       -0.50150        1.27620
C          1.22190        0.37600        2.39750
H          0.87270        2.03870       -0.04700
H         -0.62970        1.79370       -0.93950
H         -0.68500        2.02670        0.81880
H         -2.00730       -0.11770        0.78570
H         -1.56090       -1.19830       -0.57350
H         -0.95630       -1.87440        2.24730
H          2.31600       -2.06110        1.51720
H          2.02280       -1.58570       -0.19430
H          2.05480        1.00600        2.06410
H          0.43700        1.03460        2.78130
H          1.58370       -0.23830        3.22770
