16
gdb 11729	5.38504	1.3295	1.21541	3.3004	65.7	-0.2427	-0.0262	0.2164	1010.2301	0.128671	-383.722332	-383.71461	-383.713665	-383.754662	28.409
C          0.17380        1.50010        0.18060
C         -0.10560        0.00640       -0.03930
C          0.48630       -0.50290       -1.31630
C          0.07300       -0.18650       -2.77000
C          0.54700       -1.63220       -3.11340
O          0.43240       -2.33260       -4.07360
C          0.99450       -1.85910       -1.67430
O          1.88860       -0.75980       -1.38150
H          1.25010        1.69110        0.21890
H         -0.24850        2.10630       -0.62740
H         -0.26730        1.84090        1.12130
H          0.30680       -0.57870        0.78970
H         -1.18720       -0.17470       -0.05620
H         -1.00420       -0.09140       -2.93890
H          0.60280        0.64330       -3.24140
H          1.10940       -2.76740       -1.09410
