12
gdb 508	16.14416	1.34674	1.28155	2.7868	55.38	-0.2463	-0.0269	0.2194	887.4234	0.093413	-269.218553	-269.211092	-269.210148	-269.252047	23.348
C          0.03230        1.50500        0.08330
C          0.02420        0.05000        0.04080
C          0.03670       -1.15340        0.00760
C         -0.01300       -2.60690       -0.05310
C         -1.41930       -3.12690       -0.35950
O         -1.64190       -4.07580       -1.06060
H          0.98680        1.90480       -0.27590
H         -0.76010        1.92540       -0.54540
H         -0.12010        1.87540        1.10290
H          0.67320       -3.02100       -0.79920
H          0.27550       -3.03910        0.91790
H         -2.23370       -2.55590        0.13750
