14
gdb 4706	4.77034	1.49576	1.14682	4.266	70.99	-0.2364	-0.054	0.1825	991.1672	0.106894	-382.593064	-382.585815	-382.58487	-382.62487	25.876
C          0.11030        1.45580        0.04070
C         -0.06140       -0.01860       -0.01810
C         -1.15670       -0.82520       -0.18320
C         -0.67610       -2.16080       -0.15200
C          0.68100       -2.08240        0.03010
O          1.05530       -0.76970        0.11190
C          1.68620       -3.12220        0.13830
O          2.87410       -2.94840        0.30030
H          0.78000        1.80650       -0.75200
H         -0.85570        1.95050       -0.07630
H          0.54660        1.76410        0.99690
H         -2.17530       -0.49380       -0.31040
H         -1.24910       -3.07040       -0.25030
H          1.24640       -4.14100        0.05500
