21
gdb 1693	3.97106	1.67266	1.27149	1.4485	70.88	-0.2605	0.0732	0.3336	1017.3033	0.192575	-312.132386	-312.122925	-312.121981	-312.165952	34.372
C          0.06660        1.60230        0.07470
C         -0.03430        0.07690       -0.01560
C          0.69470       -0.50220       -1.23670
O          2.05560       -0.06380       -1.26110
C          0.61220       -2.04030       -1.35190
C         -0.83390       -2.55640       -1.38900
C          1.38750       -2.53270       -2.58240
H          1.11090        1.92300        0.08760
H         -0.41300        2.07790       -0.78810
H         -0.42420        1.97760        0.97790
H          0.38580       -0.38120        0.89290
H         -1.08820       -0.21850       -0.04540
H          0.25840       -0.06520       -2.14650
H          2.48390       -0.41260       -0.47070
H          1.09770       -2.45350       -0.45260
H         -0.84850       -3.63740       -1.56120
H         -1.37350       -2.36510       -0.45780
H         -1.39510       -2.08730       -2.20640
H          2.40660       -2.14150       -2.58800
H          1.42950       -3.62640       -2.60610
H          0.89760       -2.19970       -3.50560
