17
gdb 8667	2.68636	1.70424	1.37347	1.8094	65.51	-0.2335	-0.0586	0.1748	971.6288	0.13838	-401.001186	-400.991682	-400.990738	-401.0356	32.749
C         -0.26430        1.51540        0.09690
N         -0.00060        0.07530        0.03940
C          0.57400       -0.42510       -1.20130
C         -0.10610        0.11260       -2.47210
C          2.09210       -0.16570       -1.30290
O          2.73700        0.30890       -0.40510
C          0.43040       -1.96150       -1.19140
O          0.66530       -2.66620       -2.13670
H          0.60110        2.14600       -0.15580
H         -1.09030        1.77570       -0.57030
H         -0.57740        1.76330        1.11450
H          0.65850       -0.14150        0.78270
H          0.11770        1.16950       -2.63640
H          0.24310       -0.46080       -3.33310
H         -1.19000       -0.00760       -2.39390
H          2.55720       -0.47590       -2.26290
H          0.09150       -2.36370       -0.21260
