14
gdb 8647	2.50054	1.81317	1.40999	4.86	62.63	-0.2633	-0.0161	0.2472	922.3186	0.107147	-374.898164	-374.889433	-374.888489	-374.931093	30.793
N         -0.09130        1.46520        0.07150
C          0.07140        0.03270       -0.04870
C          0.85960       -0.49740        1.18370
N          2.19640        0.11370        1.17610
C          0.17360       -0.11330        2.43360
N         -0.34820        0.14600        3.42960
C          0.91480       -1.98020        1.11270
N          1.01430       -3.12600        1.00240
H          0.80760        1.93000        0.01640
H         -0.68820        1.82400       -0.66380
H         -0.91120       -0.44700       -0.06510
H          0.62290       -0.32020       -0.93810
H          2.68900       -0.09730        2.03880
H          2.73780       -0.28720        0.41450
