14
gdb 18694	3.29218	2.39125	1.53854	4.852	57.25	-0.268	-0.0174	0.2505	788.8837	0.108516	-419.688731	-419.682311	-419.681367	-419.719559	23.978
O          0.06710       -0.00250        0.18150
C          0.01180        1.17150       -0.05770
O         -1.18390        1.79470       -0.18220
C         -1.25130        3.03530       -0.91050
C         -0.27370        4.08740       -0.39810
C          1.12180        3.49880       -0.28440
O          1.42630        2.90140        0.97250
C          1.24690        2.03450       -0.15790
H         -1.06390        2.82450       -1.97110
H         -2.28760        3.36340       -0.80950
H         -0.28000        4.93970       -1.08530
H         -0.58090        4.45150        0.58720
H          1.94850        4.05160       -0.72780
H          2.13700        1.50060       -0.47970
