16
gdb 17565	3.33889	2.14012	1.66981	1.1856	64.84	-0.2242	0.0676	0.2918	815.0658	0.12924	-383.669193	-383.662106	-383.661161	-383.700033	28.156
O         -0.10200        1.44590        0.02950
C          0.03480        0.07670        0.01060
C         -0.85410       -0.81630        0.83040
C          0.64590       -0.95030        0.94460
O          1.17160       -1.71630       -0.15020
C          0.68600       -0.73660       -1.08460
C          0.26520       -1.07420       -2.47110
C          1.52320       -0.24750       -2.21950
H          0.77190        1.83520       -0.09360
H         -1.31850       -0.30360        1.66780
H         -1.44430       -1.60610        0.37370
H          1.22360       -0.90370        1.85910
H          0.40520       -2.10060       -2.79200
H         -0.60820       -0.57940       -2.88300
H          1.49660        0.81060       -2.46200
H          2.48200       -0.73000       -2.37370
