14
gdb 4995	3.34374	2.319	1.38089	4.0594	67.76	-0.2309	-0.0522	0.1787	846.7098	0.107963	-382.608647	-382.60182	-382.600876	-382.639634	25.511
C         -0.02870        1.52370       -0.00340
C         -0.05610        0.02390        0.00230
C         -1.17880       -0.72490       -0.15130
C         -1.12690       -2.15390       -0.13500
C          0.07290       -2.74020        0.03760
O          1.20870       -2.04060        0.19320
C          1.23220       -0.63750        0.18850
O          2.29780       -0.09930        0.33660
H          0.62660        1.89740       -0.79740
H         -1.03060        1.93500       -0.14830
H          0.38110        1.90850        0.93650
H         -2.13680       -0.23140       -0.28960
H         -2.01580       -2.75780       -0.25630
H          0.24920       -3.80880        0.06910
