17
gdb 17583	2.71751	2.49858	1.85725	1.4741	68.15	-0.2312	0.0717	0.3029	799.8123	0.141658	-363.7962	-363.788795	-363.787851	-363.827239	29.074
C         -0.00210        1.52950        0.02510
C         -0.00130        0.03410        0.08770
C          1.15780       -0.85070       -0.30230
C          0.56290       -0.96710        1.08660
O          1.28680       -0.73540        2.24350
C         -0.75030       -1.69970        1.00570
C         -1.88520       -0.78010        1.25380
N         -1.25380       -0.75140       -0.08000
H          0.96110        1.92730        0.35740
H         -0.18090        1.87760       -0.99820
H         -0.78060        1.95470        0.66720
H          1.02110       -1.63520       -1.04240
H          2.11910       -0.34510       -0.33310
H          2.01040       -1.37020        2.28540
H         -0.88230       -2.77330        0.90650
H         -2.88540       -1.20260        1.23950
H         -1.75070        0.06530        1.92400
