19
gdb 9905	5.27632	0.99136	0.90384	2.7137	78.72	-0.2255	0.0253	0.2508	1334.9848	0.16332	-365.044865	-365.035708	-365.034764	-365.079054	32.882
C         -0.22790        1.30690       -0.01740
O          0.24800       -0.02490        0.10870
C          0.60240       -0.62620       -1.05050
N          1.03480       -1.80740       -1.03290
C          1.41890       -2.47600       -2.23450
C          1.30980       -1.76230       -3.56870
C          2.56280       -3.45470       -2.04200
C          1.15940       -3.97100       -2.20340
H          0.53470        1.97090       -0.44420
H         -1.13330        1.35690       -0.63570
H         -0.46810        1.64510        0.99140
H          0.47260        0.00450       -1.93910
H          1.93180       -0.85950       -3.59650
H          1.64360       -2.41720       -4.37780
H          0.27600       -1.46860       -3.78690
H          3.26010       -3.58140       -2.86320
H          3.00390       -3.49260       -1.05380
H          0.65880       -4.35530       -1.32340
H          0.88810       -4.45410       -3.13600
