13
gdb 3495	7.42493	2.01397	1.90689	1.4869	59.77	-0.244	0.0321	0.2761	676.2356	0.101126	-307.206439	-307.200583	-307.199638	-307.235889	22.694
C         -0.08310       -1.28110       -0.10180
C         -0.04120       -0.08050       -0.04110
C         -0.00080        1.36310        0.02270
C          0.12420        2.12100        1.38700
C          1.58610        1.63980        1.53370
C          1.35470        2.14390        0.09060
O          0.61150        3.29790        0.63790
H         -0.12010       -2.34110       -0.15530
H         -0.71760        1.83990       -0.64920
H         -0.64420        2.28100        2.14300
H          2.21880        2.28270        2.14550
H          1.76560        0.57460        1.68530
H          2.06650        2.33130       -0.71300
