14
gdb 7876	3.8662	1.8224	1.24803	1.5759	68.51	-0.2616	-0.0727	0.189	914.6132	0.108202	-378.790049	-378.782731	-378.781787	-378.821721	26.77
C         -0.03470        1.48650        0.07290
C         -0.00840        0.00060       -0.02060
C         -0.02960       -0.80340       -1.09370
C          0.01400       -2.22730       -0.65650
O          0.01110       -3.23640       -1.31980
N          0.06150       -2.17040        0.74110
C          0.05120       -0.85760        1.20220
N          0.08310       -0.39650        2.38790
H          0.85310        1.85330        0.59830
H         -0.07950        1.94610       -0.91650
H         -0.89620        1.81830        0.66150
H         -0.07140       -0.52780       -2.13770
H          0.09790       -2.99350        1.31950
H          0.12230       -1.14070        3.08710
