14
gdb 13327	5.60063	1.38487	1.12597	4.3468	61.34	-0.2419	-0.0097	0.2322	998.1693	0.108597	-415.896829	-415.889449	-415.888505	-415.929692	25.179
O         -0.42000        0.10920        0.28550
C         -0.10290        1.25720        0.14090
N          1.18210        1.74230       -0.04050
C          2.36450        1.02540       -0.09330
N          2.54220       -0.22340        0.01000
C          3.99020       -0.43040       -0.12030
C          4.58690        0.99120       -0.32070
O          3.43000        1.85820       -0.28530
H         -0.82390        2.09920        0.13450
H          1.29040        2.73950       -0.14790
H          4.38160       -0.92080        0.77730
H          4.20020       -1.09090       -0.96820
H          5.26730        1.29840        0.47790
H          5.08450        1.12650       -1.28470
