20
gdb 9967	2.49582	1.77482	1.55874	1.6975	71.42	-0.2233	0.0714	0.2948	984.7154	0.174082	-386.113491	-386.103734	-386.10279	-386.147473	35.325
C         -0.33820        1.26960       -0.12440
O          0.09890       -0.07950       -0.01430
C          0.72250       -0.58930       -1.17200
C          1.95000        0.15050       -1.64960
C          0.67110       -2.10410       -1.26500
C          0.12620       -2.96900       -0.15000
C         -0.24280       -1.25340       -2.13360
O         -1.61200       -1.18490       -1.86620
H          0.50420        1.97220       -0.14600
H         -0.95260        1.42540       -1.02090
H         -0.93910        1.47570        0.76480
H          2.70810        0.19490       -0.85930
H          2.38650       -0.36730       -2.50800
H          1.72390        1.17390       -1.96720
H          1.52130       -2.53810       -1.78680
H         -0.72650       -2.50610        0.34860
H         -0.19990       -3.93770       -0.54250
H          0.89070       -3.15250        0.61190
H         -0.05620       -1.20370       -3.20220
H         -1.69480       -0.88570       -0.95200
