20
gdb 6977	2.42471	2.25007	1.57671	1.2831	75.55	-0.2418	0.0239	0.2656	923.9893	0.176201	-349.02269	-349.014177	-349.013233	-349.054867	33.223
C         -0.70850        1.20780       -0.00010
C          0.13610       -0.06120       -0.07120
C          1.29990       -0.02280       -1.09180
C          2.29850       -0.99080       -0.50390
C          2.01530       -1.28060        0.76320
C          0.78570       -0.54110        1.26170
C          1.18170        0.58240        2.23010
O         -0.16960       -1.40180        1.89350
H         -0.10710        2.08700        0.25520
H         -1.18550        1.40670       -0.96570
H         -1.50240        1.10870        0.74700
H         -0.51640       -0.89470       -0.35480
H          0.97840       -0.29450       -2.10390
H          1.73080        0.98690       -1.16880
H          3.15060       -1.36730       -1.06010
H          2.59450       -1.92670        1.41570
H          1.83890        1.31350        1.74950
H          0.29500        1.10020        2.60730
H          1.72740        0.16980        3.08790
H          0.15440       -1.61040        2.77620
