13
gdb 21012	6.34716	1.37879	1.14095	6.7239	68.17	-0.2634	-0.0274	0.236	978.8028	0.097455	-357.681	-357.673914	-357.67297	-357.713182	24.731
C          0.00640        1.43720        0.04380
N         -0.01770       -0.01130       -0.03320
C         -0.08620       -0.78340       -1.14930
C         -0.02560       -2.09410       -0.73500
C          0.08230       -2.00420        0.67180
N          0.08830       -0.72990        1.08850
C          0.17050       -3.07890        1.59980
N          0.24100       -3.97980        2.32260
H          1.02460        1.79730        0.21650
H         -0.37020        1.84900       -0.89360
H         -0.63060        1.75990        0.86840
H         -0.17330       -0.34610       -2.13100
H         -0.06120       -2.98440       -1.33960
