14
gdb 5451	3.38562	1.97019	1.25512	4.2888	72.56	-0.2278	-0.018	0.2098	910.3682	0.109026	-341.649244	-341.641917	-341.640973	-341.681062	26.566
C         -0.00180        1.53120        0.04260
C          0.01640        0.03460        0.02970
C         -0.00620       -0.77530       -1.10050
N          0.02250       -2.09400       -0.68520
C          0.06220       -2.13600        0.67400
C          0.05960       -0.83950        1.14550
C         -0.05010       -0.42600       -2.46560
N         -0.08610       -0.14080       -3.58970
H          0.88930        1.93580        0.53490
H         -0.03640        1.93390       -0.97280
H         -0.87250        1.91390        0.58620
H          0.01310       -2.88720       -1.30290
H          0.08920       -3.07730        1.19930
H          0.08610       -0.54620        2.18390
