12
gdb 1711	4.41776	2.2858	1.93691	2.2852	50.59	-0.2744	-0.0029	0.2716	668.6074	0.089259	-360.48972	-360.482931	-360.481987	-360.520873	23.553
O          0.01560        1.44000       -0.10410
C          0.01230        0.04000        0.00940
C          0.13030       -0.55860        1.44530
O         -1.19630       -1.10440        1.37010
C         -1.42940       -0.52170        0.07710
C          0.89400       -0.58010       -0.98520
N          1.61790       -1.04460       -1.75750
H          0.92710        1.75240       -0.14330
H          0.89200       -1.33070        1.59390
H          0.22490        0.22500        2.20660
H         -2.16870        0.28670        0.09970
H         -1.70020       -1.26610       -0.67720
