9
gdb 743	9.72565	3.72581	2.7397	2.7404	40.37	-0.3198	-0.0698	0.25	446.7216	0.061106	-317.361117	-317.356099	-317.355155	-317.389628	16.782
C         -0.01900        1.49040        0.03240
C         -0.00120        0.00640       -0.03320
N         -0.10800       -0.70360       -1.12010
O         -0.04090       -1.98960       -0.70130
N          0.11180       -2.00340        0.68180
N          0.13450       -0.81240        1.07890
H          0.91290        1.86320        0.46680
H         -0.14040        1.90730       -0.96790
H         -0.84090        1.83310        0.66740
