20
gdb 19395	2.91687	2.13586	1.58834	0.2964	78.7	-0.2407	0.0938	0.3345	906.3024	0.177427	-311.827687	-311.820102	-311.819158	-311.859015	30.431
C         -0.13060        1.56920       -0.04500
C          0.04920        0.05690        0.00490
C          1.09190       -0.60430       -0.91780
C          2.50000       -0.24850       -0.52220
C          1.76110       -1.28300        0.28130
C          0.77770       -0.59840        1.20950
C          1.05320       -0.01730        2.56710
C          0.12260       -1.20240        2.41190
H          0.82270        2.09420        0.06940
H         -0.57070        1.87710       -0.99990
H         -0.79820        1.91560        0.75230
H         -0.92260       -0.43080       -0.13370
H          0.87150       -1.02640       -1.89110
H          3.26980       -0.63270       -1.18450
H          2.73570        0.71730       -0.08240
H          2.10830       -2.30520        0.37790
H          2.02970       -0.18530        3.01060
H          0.61160        0.94330        2.81380
H         -0.94180       -1.04010        2.55430
H          0.47130       -2.17280        2.75210
