12
gdb 5498	3.62842	1.93687	1.26439	3.8148	62.96	-0.2209	-0.0278	0.1931	867.151	0.085618	-377.558451	-377.551621	-377.550676	-377.589452	25.257
N          0.06360        1.38870        0.15920
C          0.01310        0.00680        0.04110
C         -1.06300       -0.82890        0.01480
O         -0.64740       -2.13990       -0.02710
C          0.68820       -2.14320       -0.03100
C          1.17110       -0.86250        0.00880
C          2.52020       -0.44210        0.00500
N          3.61000       -0.04820       -0.00630
H          0.91300        1.79960       -0.20380
H         -0.75180        1.87230       -0.18830
H         -2.12700       -0.67210        0.02870
H          1.17840       -3.10170       -0.06770
