20
gdb 8151	3.598	1.71414	1.56398	1.3978	74.37	-0.2522	0.0747	0.3269	927.6928	0.17808	-349.011784	-349.00401	-349.003065	-349.04316	31.117
C         -0.30180        1.46210        0.13200
C          0.11790        0.02230       -0.04320
C         -0.69820       -1.08190        0.58940
C          0.70550       -0.80710        1.08270
C          1.83150       -1.66020        0.52030
C          1.62680       -1.66140       -1.01570
O          0.80930       -2.74510       -1.46260
C          0.87310       -0.35170       -1.31690
H          0.55340        2.14300        0.04010
H         -1.04010        1.75720       -0.62350
H         -0.75550        1.62620        1.11480
H         -1.51150       -0.77330        1.23900
H         -0.88270       -1.98690        0.02310
H          0.82700       -0.38540        2.07540
H          2.79950       -1.20410        0.76310
H          1.85270       -2.68390        0.91580
H          2.59070       -1.69600       -1.54260
H          1.22550       -3.56370       -1.17440
H          0.22760       -0.48200       -2.19150
H          1.59340        0.44110       -1.55410
