13
gdb 12760	3.45328	1.82532	1.53399	3.7305	58.21	-0.2597	-0.0069	0.2528	826.8148	0.094556	-398.551247	-398.544253	-398.543309	-398.582422	26.04
O         -0.03310        1.43660        0.05610
C         -0.01830        0.06730        0.01350
C         -0.30800       -0.77860       -1.20570
C         -1.14350       -0.93270        0.03660
O         -0.47500       -1.77660        0.98680
C          0.60380       -0.81540        1.11370
C          1.93000       -1.38570        0.87900
N          2.98520       -1.80800        0.66930
H          0.62980        1.77460       -0.55700
H         -0.79370       -0.21880       -1.99960
H          0.35750       -1.57570       -1.52500
H         -2.22000       -0.84590        0.10310
H          0.56910       -0.32550        2.09280
