24
gdb 17621	3.00116	1.43215	1.05113	0.1181	85.09	-0.2696	0.0903	0.3599	1224.1731	0.222236	-314.268593	-314.258771	-314.257827	-314.302859	37.192
C         -0.07210        1.54050        0.03390
C         -0.03500        0.00600       -0.04950
C         -1.47110       -0.53910       -0.07920
C          0.82120       -0.49980       -1.24110
C          2.26210        0.03890       -1.18600
C          0.85260       -2.02060       -1.32250
C         -0.14750       -2.80340       -2.13590
C          1.28560       -2.70700       -2.59440
H          0.91530        1.97590        0.20560
H         -0.47350        1.97290       -0.89110
H         -0.72000        1.86470        0.85500
H          0.44440       -0.36670        0.86890
H         -1.99430       -0.21660       -0.98780
H         -1.49880       -1.63020       -0.04930
H         -2.04090       -0.16340        0.77740
H          0.35520       -0.12730       -2.16700
H          2.30280        1.12740       -1.27370
H          2.74580       -0.23890       -0.24150
H          2.86050       -0.38270       -1.99880
H          1.18510       -2.49880       -0.40240
H         -0.50560       -3.75170       -1.74920
H         -0.89290       -2.24570       -2.69340
H          1.49590       -2.08380       -3.45810
H          1.91310       -3.58870       -2.52370
