24
gdb 6230	2.03623	1.95781	1.54354	0.0551	85.88	-0.2463	0.0792	0.3255	1064.6978	0.220178	-314.275175	-314.264488	-314.263544	-314.309605	39.638
C         -0.18890        0.98350       -1.80260
C         -0.00360       -0.20930       -0.88710
C          1.34000       -0.67010       -0.34050
C          1.63680       -2.16300       -0.34950
C          2.60030        0.13150       -0.63140
C          0.27470       -0.10920        0.60580
C          0.47350        1.25130        1.25780
C         -0.48430       -1.04620        1.53470
H          0.46980        1.81950       -1.55650
H          0.01020        0.70890       -2.84490
H         -1.21860        1.35580       -1.75340
H         -0.66900       -1.03140       -1.14900
H          2.10670       -2.44820       -1.29860
H          2.33380       -2.43640        0.45260
H          0.74170       -2.77750       -0.23530
H          2.43670        1.20810       -0.68460
H          3.35900       -0.04770        0.14000
H          3.03400       -0.17890       -1.58970
H          0.97140        1.97960        0.61730
H         -0.49470        1.67900        1.54470
H          1.06970        1.15750        2.17370
H          0.08850       -1.25440        2.44710
H         -1.43050       -0.58570        1.84390
H         -0.72820       -2.00360        1.07020
