22
gdb 6219	3.54316	1.4626	1.39326	1.4863	77.61	-0.238	0.0751	0.3131	1054.1624	0.199796	-350.227605	-350.218659	-350.217715	-350.260739	34.187
C         -0.19830        1.38250        0.25190
C         -0.03260       -0.08400       -0.12820
C          1.06730       -0.35620       -1.17220
C          1.70440       -1.68630       -0.70960
C          0.87060       -2.88900       -1.18450
C          3.16220       -1.83910       -1.15070
C          1.56440       -1.51020        0.81410
O          0.32220       -0.85760        1.03140
H          0.74600        1.79490        0.62280
H         -0.51590        1.97270       -0.61490
H         -0.95200        1.49260        1.03680
H         -0.99880       -0.46700       -0.48710
H          0.67220       -0.40390       -2.19100
H          1.81640        0.44420       -1.14500
H          0.84390       -2.94160       -2.27840
H          1.29730       -3.82840       -0.81620
H         -0.15980       -2.82830       -0.82200
H          3.76920       -0.98810       -0.82360
H          3.60800       -2.74940       -0.73380
H          3.23970       -1.90710       -2.24130
H          1.55060       -2.46100        1.35850
H          2.39850       -0.90600        1.20840
