20
gdb 7275	2.7045	1.42147	1.18355	4.5315	75.61	-0.2177	0.0391	0.2568	1125.375	0.175482	-345.188664	-345.178949	-345.178005	-345.223191	34.727
C         -0.03780        1.61370       -0.14650
C          0.06660        0.08380        0.00050
C          0.69690       -0.52730       -1.27510
C          0.68620       -1.98790       -1.26990
N          0.66150       -3.14290       -1.28700
N          0.76130       -0.39500        1.19530
C          2.07690        0.17500        1.43700
C         -0.06040       -0.38590        2.39340
H          0.94020        2.07110       -0.32750
H         -0.69100        1.87950       -0.98360
H         -0.45740        2.06190        0.75850
H         -0.95060       -0.31800        0.06900
H          0.14780       -0.17720       -2.15640
H          1.72920       -0.18150       -1.39820
H          2.05610        1.23160        1.75980
H          2.57570       -0.40090        2.22300
H          2.70080        0.10840        0.54120
H         -1.00100       -0.91200        2.20480
H          0.46440       -0.91510        3.19540
H         -0.30070        0.62690        2.76850
