15
gdb 16638	3.20313	2.40731	1.60701	2.3182	61.16	-0.2608	0.0104	0.2712	789.3741	0.120194	-399.795329	-399.788647	-399.787703	-399.82621	25.96
O         -0.09930        1.46550       -0.11610
C         -0.02200        0.06260       -0.02270
C         -1.36090       -0.64090       -0.06620
C         -2.14090       -0.53830       -1.36330
C         -1.21820       -1.69510       -1.12810
O          0.06890       -1.60270       -1.73030
C          0.72200       -0.52240       -1.22570
N          1.77760       -0.00370       -1.68060
H          0.72660        1.74290       -0.53800
H          0.51290       -0.23710        0.89330
H         -1.88610       -0.83670        0.85930
H         -3.20720       -0.72730       -1.31530
H         -1.84030        0.21860       -2.07990
H         -1.55510       -2.71940       -1.04240
H          2.10980       -0.47800       -2.52010
