16
gdb 18574	3.61742	2.09638	1.7496	2.5198	67.43	-0.2236	0.0095	0.2331	794.4669	0.130922	-383.696132	-383.689208	-383.688263	-383.727125	26.54
O         -0.20880        1.41980        0.07510
C          0.00040        0.03400        0.03460
C          0.15090       -0.63550        1.46670
C         -1.35210       -0.79240        1.40000
C         -2.46750       -0.28160        1.90520
C         -3.39250        0.04960        0.74490
O         -2.59490       -0.09160       -0.44810
C         -1.39100       -0.71820       -0.08980
H          0.61520        1.83910        0.34250
H          0.76530       -0.25100       -0.70070
H          0.71120       -1.57390        1.41260
H          0.55770       -0.00900        2.26360
H         -2.66680        0.03460        2.92120
H         -4.27780       -0.60110        0.66990
H         -3.74840        1.08650        0.81520
H         -1.25550       -1.65660       -0.64560
