18
gdb 16074	3.14608	1.80636	1.48491	0.8877	68.08	-0.2392	0.0745	0.3136	926.3647	0.152863	-384.891151	-384.882976	-384.882032	-384.923559	30.498
C          0.13470        1.32610        0.16540
O         -0.15680       -0.03920       -0.08940
C          0.51460       -0.54120       -1.18390
C          0.07080       -0.34190       -2.64020
C          0.45930       -1.82730       -2.93080
C          0.87680       -2.00700       -1.46520
C          1.93600       -0.98780       -1.10360
O          2.89040       -0.51380       -2.01190
H          1.20740        1.47980        0.34690
H         -0.17320        1.96980       -0.67040
H         -0.42730        1.61130        1.05760
H         -1.00690       -0.17950       -2.70870
H          0.59770        0.42720       -3.20930
H         -0.40030       -2.44060       -3.20640
H          1.25340       -1.97450       -3.66740
H          0.71490       -2.89120       -0.85980
H          2.28610       -1.08210       -0.07460
H          3.51280       -1.22700       -2.19010
