17
gdb 17695	4.93251	1.50603	1.47236	2.0435	68.09	-0.2306	0.0837	0.3143	906.1738	0.143504	-363.751383	-363.744674	-363.74373	-363.78276	25.77
C          0.27000        1.49790        0.07010
O          1.13820        0.41510       -0.26030
C         -0.22900        0.11560        0.05130
C         -0.46100       -0.66030        1.30470
C         -1.76850       -0.86010        2.11060
N         -0.75950       -1.68100        2.93400
C         -0.25730       -2.17420        1.56540
C          0.19060       -0.49130        2.69690
H          0.47070        1.98290        1.02430
H          0.02290        2.17010       -0.75050
H         -0.82070       -0.19840       -0.81100
H         -2.17620       -0.00060        2.65030
H         -2.56310       -1.46580        1.66590
H         -0.93880       -2.87820        1.07940
H          0.76640       -2.55630        1.58550
H          1.24750       -0.74680        2.80160
H         -0.06970        0.39300        3.28550
