18
gdb 14530	3.7056	1.70001	1.41723	1.2588	67.09	-0.2383	0.0705	0.3088	930.3254	0.152573	-384.898434	-384.890108	-384.889164	-384.931859	30.215
O          0.01580        1.40540        0.31650
C          0.00890        0.03330        0.01680
C          0.95280       -0.54230       -1.00040
C          1.11530       -0.86950        0.47920
C         -1.42040       -0.44810        0.08520
C         -2.36370       -0.06400       -1.07730
C         -2.50600       -1.58570       -1.27170
O         -1.54690       -1.85380       -0.22160
H          0.92490        1.71950        0.31140
H          0.59550       -1.33430       -1.64870
H          1.67380        0.13000       -1.45550
H          1.94460       -0.41600        1.01420
H          0.85900       -1.87240        0.80140
H         -1.82120       -0.21820        1.08170
H         -3.27140        0.47110       -0.79780
H         -1.86750        0.46210       -1.89380
H         -3.49180       -2.00180       -1.03000
H         -2.17720       -1.99060       -2.23590
