15
gdb 1852	5.72871	2.06274	1.64909	3.6273	63.62	-0.2358	-0.0431	0.1927	757.8619	0.125647	-308.561152	-308.554569	-308.553625	-308.591899	24.414
C         -0.10520        1.56850        0.02610
C          0.02820        0.03820       -0.01160
C          0.81350       -0.50660       -1.22530
C          1.94190       -1.37550       -0.64310
O          2.74890       -2.01280       -1.27810
C          1.84000       -1.27250        0.83240
C          0.79760       -0.50700        1.17210
H          0.88000        2.04660        0.00540
H         -0.67580        1.92930       -0.83510
H         -0.62090        1.89900        0.93390
H         -0.98560       -0.38550        0.00720
H          0.20370       -1.10430       -1.90840
H          1.25970        0.29660       -1.82110
H          2.53220       -1.77170        1.49850
H          0.49990       -0.27090        2.18960
