13
gdb 21829	5.98538	1.46595	1.17754	3.1385	62.47	-0.2246	0.0041	0.2287	932.2419	0.098477	-394.828199	-394.821552	-394.820608	-394.859382	24.302
O         -0.34400        0.07880        0.00220
C         -0.07430        1.25960        0.00850
N          1.18350        1.79110        0.00110
C          2.38310        1.07880       -0.01410
N          3.52050        1.76960       -0.01760
N          4.47380        0.81350       -0.03310
C          3.96760       -0.44060       -0.03920
C          2.59420       -0.31910       -0.02720
H         -0.84210        2.05700        0.02110
H          1.27970        2.79590        0.00810
H          5.43880        1.09360       -0.03850
H          4.60610       -1.30980       -0.05140
H          1.84690       -1.09040       -0.02740
