20
gdb 11377	4.20378	1.24719	1.124	1.711	77.32	-0.235	0.0248	0.2598	1146.7718	0.177326	-349.025043	-349.016581	-349.015637	-349.058153	31.921
C          0.03020        1.46820        0.27580
C         -0.04420       -0.01490       -0.12960
C         -1.43760       -0.57000       -0.10300
C         -2.14430       -1.03120       -1.14100
C         -3.53260       -1.47210       -0.74190
C         -3.41580       -1.60480        0.79800
O         -3.11800       -2.94120        1.18280
C         -2.26440       -0.63880        1.16980
H          1.06280        1.82870        0.24070
H         -0.56950        2.08770       -0.39860
H         -0.34260        1.62380        1.29300
H          0.37950       -0.14190       -1.13230
H          0.59120       -0.59520        0.55480
H         -1.78580       -1.06040       -2.16500
H         -4.28380       -0.72100       -1.02560
H         -3.85170       -2.42190       -1.18480
H         -4.34850       -1.36540        1.31430
H         -2.30730       -3.19290        0.72510
H         -1.71180       -1.01450        2.03880
H         -2.64740        0.35450        1.44220
