20
gdb 17851	4.61634	1.57751	1.48565	0.1396	78.8	-0.2405	0.0925	0.3331	948.7305	0.178643	-311.827701	-311.820494	-311.819549	-311.85917	28.589
C          0.05670        1.51250       -0.13210
C          1.59110        1.51380        0.13770
C          1.44820        0.07990        0.67820
C          0.02090       -0.02420        0.11600
C          2.41980       -1.05300        0.75920
C          3.80850       -0.54470        1.16870
C          3.18730        0.06250        2.47030
C          1.80860       -0.44780        2.03570
H         -0.49880        2.06890        0.62680
H         -0.26700        1.85550       -1.11700
H          2.18380        1.56570       -0.78150
H          1.96410        2.27260        0.83100
H         -0.75300       -0.39730        0.79290
H         -0.02840       -0.60120       -0.81340
H          2.21180       -2.00600        0.28450
H          4.51490       -1.34890        1.38560
H          4.28470        0.15630        0.47470
H          3.55950       -0.43080        3.37100
H          3.28120        1.14530        2.60680
H          1.05240       -0.85970        2.69560
