15
gdb 4179	3.62911	1.86667	1.40354	0.8025	64.86	-0.2387	0.0036	0.2423	871.7481	0.118228	-399.718646	-399.711219	-399.710275	-399.750181	28.159
O         -0.20820        1.31010        0.12230
N          0.02970       -0.08590       -0.01310
C         -1.07660       -0.70150        0.02430
C         -1.43460       -2.13670       -0.07370
C         -2.29130       -2.49480        1.12950
C         -2.93360       -1.73970        0.01450
C         -2.54190       -0.25860        0.07770
O         -2.99080        0.45090        1.20510
H          0.68320        1.67190        0.08910
H         -0.95260       -2.88740       -0.68530
H         -2.55240       -3.54610        1.19370
H         -2.11870       -2.01010        2.08440
H         -3.75710       -2.13520       -0.56450
H         -2.79640        0.25850       -0.86020
H         -2.43120        1.23360        1.27320
