14
gdb 2539	3.02762	2.44384	1.58808	4.1035	54.35	-0.2851	0.0123	0.2974	789.0501	0.112033	-361.704536	-361.696577	-361.695633	-361.736878	26.979
C          0.12950        1.24300       -0.16010
O         -0.14390       -0.11100        0.16610
C          0.61520       -0.63120        1.23540
C          0.07320       -2.04640        1.48610
O          0.19080       -2.85510        0.34450
C          2.06060       -0.65060        0.91660
N          3.19010       -0.63300        0.67440
H          1.16810        1.37660       -0.48800
H         -0.54440        1.50950       -0.97600
H         -0.06260        1.90320        0.69750
H          0.48320       -0.02130        2.14430
H          0.64220       -2.52350        2.28890
H         -0.97120       -1.93580        1.81560
H         -0.21730       -2.36960       -0.38230
