14
gdb 21045	3.94711	1.86194	1.27696	1.585	60.25	-0.2011	0.0447	0.2458	900.8664	0.109142	-412.074637	-412.066984	-412.066039	-412.106534	27.733
C          0.00370        1.42130       -0.07950
N          0.04550       -0.01770       -0.00660
N          0.08110       -0.79700       -1.15130
C          0.12080       -2.01800       -0.64500
N          0.23310       -3.15080       -1.42660
N          0.10280       -2.09840        0.72270
C          0.05680       -0.82570        1.05990
O          0.02150       -0.33400        2.30560
H          0.89180        1.80210       -0.59240
H         -0.88590        1.74860       -0.62560
H         -0.02720        1.81840        0.93590
H         -0.08080       -3.01440       -2.37660
H         -0.16780       -3.97040       -0.99490
H          0.05110       -1.09360        2.90060
