14
gdb 19331	4.93071	1.70214	1.51444	4.4533	66.41	-0.2342	0.0129	0.2471	825.0042	0.108358	-341.510895	-341.50461	-341.503666	-341.541167	24.814
N          0.09070       -1.14300       -0.05140
C          0.04740        0.01480       -0.02940
C         -0.01710        1.43200        0.02520
C          0.23530        2.33570       -1.16930
C          1.15010        2.44350        0.00740
C          0.49780        3.17350        1.21610
N         -0.86620        3.61080        0.82520
C         -0.61960        2.21480        1.24080
H          0.65340        1.82120       -2.02750
H         -0.47870        3.11990       -1.38310
H          2.20160        2.19550       -0.03760
H          1.03670        3.64230        2.02750
H         -1.27300        4.09760        1.62260
H         -1.14210        1.74970        2.06530
