15
gdb 8232	5.49466	1.22739	1.09625	3.2831	57.51	-0.251	0.0474	0.2985	1051.4704	0.118633	-436.953113	-436.945075	-436.944131	-436.986731	27.858
N         -0.08640        1.28350        0.01630
C          0.00670       -0.06650        0.17800
O          0.92160       -0.65310        0.70760
O         -1.10770       -0.67180       -0.31560
C         -1.10970       -2.08910       -0.18510
C         -1.43160       -2.66750        1.20290
O         -2.59200       -3.35320        0.67790
C         -2.44500       -2.71540       -0.60690
H          0.74830        1.81700        0.18520
H         -0.78100        1.66010       -0.60520
H         -0.21560       -2.50370       -0.65170
H         -0.69640       -3.35700        1.62840
H         -1.69740       -1.90550        1.94570
H         -3.22840       -1.97130       -0.79920
H         -2.41470       -3.43870       -1.42910
