20
gdb 12551	3.33368	1.72587	1.22168	1.2413	77.42	-0.241	0.0199	0.261	1031.9665	0.178386	-349.007423	-348.999494	-348.99855	-349.039913	30.363
C          0.43820        1.65890        0.00630
C         -0.05430        0.20280       -0.06530
C          0.48500       -0.47560       -1.33370
C          0.09350       -1.93950       -1.52560
O          0.86950       -2.81590       -0.73120
C          0.42040       -2.99990        0.59060
C          0.41070       -1.80150        1.50610
C          0.22530       -0.50790        1.24040
H          1.52800        1.69640        0.11430
H          0.17100        2.20990       -0.90100
H         -0.00030        2.18510        0.86030
H         -1.15290        0.24140       -0.16420
H          0.13270        0.09640       -2.20210
H          1.58090       -0.42500       -1.34350
H         -0.98270       -2.09020       -1.33420
H          0.28580       -2.23470       -2.56300
H         -0.59440       -3.44430        0.58730
H          1.08600       -3.76050        1.01420
H          0.52480       -2.07700        2.55430
H          0.21910        0.15920        2.10230
