13
gdb 10798	5.08041	1.61268	1.27357	2.5961	54.55	-0.2621	-0.0457	0.2164	875.0924	0.096543	-435.791971	-435.785149	-435.784205	-435.823577	24.574
O          0.03030        0.04560        0.57460
C         -0.01000        1.13640        0.06900
C         -1.30770        1.82760       -0.32800
N         -1.07350        3.24730       -0.54610
C         -0.02010        3.69770       -1.31210
O         -0.00660        4.73430       -1.91880
O          1.05390        2.85460       -1.32960
C          1.23140        1.96500       -0.22740
H         -1.70000        1.31580       -1.22120
H         -2.03690        1.68700        0.47400
H         -1.88610        3.84040       -0.62710
H          1.49460        2.52930        0.67900
H          2.06570        1.30890       -0.47900
