16
gdb 8257	7.43771	0.91507	0.85009	0.7946	66.38	-0.2524	-0.0338	0.2186	1270.1848	0.127992	-383.756107	-383.747955	-383.747011	-383.79009	28.581
O         -0.16950       -0.00110       -0.05940
C          0.01680        1.18720       -0.01840
C          1.36110        1.85760       -0.20660
C          1.34960        2.86230       -1.36200
C          0.50400        4.16880       -1.19210
C          1.74030        4.96300       -1.64760
O          1.91760        6.09220       -1.99590
C          2.64030        3.71870       -1.56300
H         -0.82960        1.89140        0.15960
H          1.60620        2.38830        0.72580
H          2.11440        1.08000       -0.36470
H          1.08240        2.35090       -2.29100
H         -0.39700        4.28740       -1.79860
H          0.25070        4.39210       -0.14900
H          3.28180        3.74750       -0.67460
H          3.26560        3.51100       -2.43470
