16
gdb 11458	4.03701	1.48176	1.16359	3.3045	62.26	-0.2278	0.0477	0.2755	1004.4551	0.132425	-417.078624	-417.070884	-417.06994	-417.111202	28.47
N         -0.14410        1.27760       -0.12100
C         -0.14530       -0.08650       -0.06780
N         -1.14860       -0.84340        0.15730
C         -0.66600       -2.22370        0.00290
C         -1.45970       -2.91240       -1.11320
O         -2.84300       -2.86060       -0.85240
C          0.84790       -2.07330       -0.30230
O          1.06550       -0.64480       -0.32960
H          0.74330        1.72150        0.05440
H         -0.94000        1.71460        0.31540
H         -0.83830       -2.77600        0.93470
H         -1.20600       -2.42890       -2.07360
H         -1.18060       -3.97030       -1.18900
H         -3.01400       -1.94960       -0.57770
H          1.49540       -2.50390        0.46570
H          1.13300       -2.47990       -1.27850
