15
gdb 3358	4.63787	3.11652	2.36537	1.3699	55.45	-0.2539	0.0748	0.3287	602.7683	0.127117	-345.640969	-345.635252	-345.634308	-345.670726	21.671
C         -0.06000        1.48840       -0.25050
C          1.39790        1.58390        0.29210
C          1.39420        0.05200        0.57420
O          1.29580       -0.34300        1.93060
C         -0.06120       -0.19350        2.28740
O         -0.82970       -0.48210        1.13970
C         -0.06540       -0.04350        0.03110
H         -0.81370        2.03670        0.31940
H         -0.17300        1.74290       -1.30680
H          2.14150        1.89460       -0.44540
H          1.52930        2.19010        1.19140
H          2.18450       -0.53710        0.10680
H         -0.30700       -0.91170        3.07440
H         -0.25980        0.83430        2.64040
H         -0.28640       -0.69900       -0.81250
