13
gdb 23741	3.31861	2.38	1.39795	1.0615	62.89	-0.2625	-0.0511	0.2114	815.7	0.096235	-402.80713	-402.800572	-402.799627	-402.838083	23.997
C         -0.03270        1.51920       -0.00710
C         -0.00870        0.01860       -0.01960
N         -0.04380       -0.63480       -1.17840
C         -0.02030       -1.97350       -1.13990
C          0.03860       -2.67080        0.05680
N          0.07460       -2.03130        1.23490
C          0.05060       -0.72690        1.17080
F          0.08560       -0.06290        2.32440
H          0.86000        1.92260        0.48270
H         -0.07940        1.88890       -1.03190
H         -0.89640        1.89390        0.55240
H         -0.04940       -2.49480       -2.09200
H          0.05740       -3.75610        0.08370
