18
gdb 17531	5.10153	1.43278	1.30363	2.2798	72.87	-0.2217	0.071	0.2928	994.7145	0.154459	-343.909325	-343.901952	-343.901008	-343.940645	28.677
C         -0.06880        1.44000       -0.01360
C          0.02440       -0.06410       -0.08490
C          0.76620       -0.71280       -1.19110
N          1.35950       -0.61840        0.20950
C          1.17610       -2.11260        0.34410
C          0.66130       -2.21560       -1.09440
C         -0.26430       -3.13960       -1.78430
N          1.19250       -3.18040       -2.04710
H          0.83160        1.90120       -0.42870
H         -0.93660        1.80370       -0.57390
H         -0.16810        1.77200        1.02470
H         -0.83410       -0.60040        0.32180
H          1.18050       -0.15700       -2.02910
H          2.14160       -2.60480        0.47780
H          0.49670       -2.39970        1.15390
H         -0.65500       -4.01280       -1.26840
H         -0.92510       -2.72820       -2.54390
H          1.40140       -2.72560       -2.93340
