15
gdb 10386	2.70593	2.03315	1.4501	2.026	62.42	-0.2409	-0.0556	0.1853	879.6607	0.117437	-399.788339	-399.7804	-399.779456	-399.821295	27.572
O         -0.07540       -0.07940        0.22850
C         -0.00110        1.07240       -0.11540
C          1.29070        1.87140       -0.04150
C          1.31770        2.78620        1.23840
C          2.31890        1.75170        1.80720
N          2.45430        1.13080        0.46100
C          1.51620        2.60990       -1.35090
O          0.70660        3.35780       -1.83700
H         -0.87090        1.63600       -0.50900
H          1.73890        3.77310        1.04170
H          0.36750        2.90170        1.76160
H          3.25760        2.15030        2.20270
H          1.86730        1.09480        2.55840
H          2.29200        0.12690        0.45880
H          2.50870        2.40790       -1.80880
