15
gdb 19804	4.15786	2.01457	1.8093	1.2118	63.76	-0.2339	-0.0325	0.2014	758.0921	0.11939	-362.600722	-362.594552	-362.593608	-362.630918	24.586
O         -0.04410        0.00360       -0.12100
C         -0.04350        1.19600       -0.04410
C         -1.15850        2.26450        0.09910
C         -0.05540        3.35650        0.08270
C          1.05830        2.27900       -0.00240
C          1.42910        2.91360       -1.36090
C          0.30590        2.99710       -2.31040
N          0.37570        4.00050       -1.22860
H         -1.94340        2.28010       -0.66120
H         -1.63690        2.19000        1.08230
H         -0.08970        4.10610        0.87010
H          1.86940        2.17140        0.71610
H          2.45040        3.14650       -1.64390
H          0.51590        3.43900       -3.27990
H         -0.47770        2.24620       -2.33430
