16
gdb 14310	3.71682	1.86421	1.75793	2.019	59.97	-0.2331	0.0705	0.3036	818.5622	0.130029	-420.84707	-420.839863	-420.838919	-420.878425	27.511
C          0.27200        1.50860        0.01240
C          0.12560        0.00770        0.05710
O          0.67100       -0.58560       -1.11130
C          1.10380       -1.87030       -0.73520
C          2.45800       -1.94150       -0.03620
O          3.33380       -0.87150       -0.02680
C          1.18010       -1.86800        0.77170
O          0.86920       -0.54140        1.15080
H          1.32150        1.77660       -0.13220
H         -0.31130        1.91110       -0.81930
H         -0.09210        1.94810        0.94420
H         -0.92940       -0.29800        0.16600
H          0.71510       -2.69040       -1.32990
H          2.96640       -2.90120       -0.08030
H          2.91300       -0.18460        0.50820
H          0.81870       -2.64410        1.43790
