18
gdb 14343	4.91409	1.55579	1.32628	1.5859	74.38	-0.2361	0.0063	0.2424	962.8881	0.154752	-347.772992	-347.765871	-347.764927	-347.804147	27.784
C         -0.14290        1.56250        0.02760
C          0.03610        0.04190        0.02460
C          0.83980       -0.49200       -1.21610
C          1.48750       -1.77180       -0.67180
O          2.94280       -1.99900       -0.70500
C          2.97940       -2.12090        0.75130
C          1.60430       -1.50480        0.79220
C          0.88070       -0.47050        1.19980
H          0.82740        2.07080        0.05330
H         -0.67270        1.89520       -0.87110
H         -0.72080        1.89420        0.89680
H         -0.96390       -0.41650        0.03300
H          0.21510       -0.63880       -2.10220
H          1.62980        0.22610       -1.46300
H          0.97440       -2.68970       -0.98930
H          3.04900       -3.17390        1.05530
H          3.79840       -1.55310        1.20540
H          0.93160        0.04510        2.15230
