14
gdb 10460	3.0079	1.5801	1.19097	3.9358	62.71	-0.2681	-0.0451	0.223	983.7736	0.105924	-378.707448	-378.699456	-378.698512	-378.741081	27.565
O          0.37290       -0.17130       -0.05670
C          0.09150        0.99250       -0.17130
C          1.08000        2.12250        0.07630
C          1.23250        3.02490       -1.14450
C          2.58200        3.56970       -1.48990
N          1.97420        2.53260       -2.32380
C          0.06010        3.81940       -1.45910
N         -0.88230        4.45700       -1.66290
H         -0.92610        1.31860       -0.47690
H          0.71980        2.71860        0.92510
H          2.04490        1.68360        0.34440
H          2.65840        4.54600       -1.95770
H          3.39710        3.31070       -0.81950
H          2.36660        1.61700       -2.11350
