13
gdb 9019	6.25432	0.89055	0.78373	4.3082	64.09	-0.2609	-0.0543	0.2065	1318.0889	0.092923	-394.793521	-394.784758	-394.783813	-394.828434	29.258
N         -0.10500        1.36550       -0.15890
C          0.02150        0.05550        0.23720
N          1.08730       -0.59670        0.49240
C          2.35610        0.07390        0.32340
C          3.50490       -0.86830        0.67050
O          4.66220       -0.58100        0.52510
C         -1.24980       -0.62400        0.41730
N         -2.27820       -1.13550        0.54230
H          0.70620        1.84140       -0.51780
H         -0.99500        1.68260       -0.50690
H          2.52110        0.43080       -0.70750
H          2.44770        0.96080        0.97320
H          3.17100       -1.84750        1.07610
