21
gdb 1575	3.43194	1.63212	1.19581	0.9463	71.94	-0.2462	0.0873	0.3335	1080.5854	0.192354	-312.128429	-312.118892	-312.117948	-312.162923	33.462
C         -0.05060        1.49910       -0.07200
C         -0.00350       -0.00520        0.14340
O         -1.30430       -0.52170       -0.04800
C         -1.41500       -1.94010        0.00170
C         -1.39170       -2.45820        1.44300
C         -2.71450       -2.30810       -0.71810
C         -2.73200       -1.89360       -2.19080
H          0.94240        1.93690        0.06840
H         -0.39450        1.73160       -1.08390
H         -0.73920        1.96590        0.63810
H          0.69860       -0.47480       -0.56650
H          0.36820       -0.22800        1.15630
H         -0.56690       -2.38140       -0.55180
H         -2.22850       -2.03720        2.00970
H         -1.47610       -3.54960        1.46040
H         -0.46310       -2.19040        1.95510
H         -2.86500       -3.39060       -0.62710
H         -3.54500       -1.82870       -0.18460
H         -3.68920       -2.14070       -2.66000
H         -2.56950       -0.81730       -2.28560
H         -1.94340       -2.40440       -2.75540
