18
gdb 17930	3.15374	2.43698	1.98246	0.8432	78.67	-0.2054	-0.0276	0.1778	787.3363	0.154341	-310.57349	-310.566737	-310.565793	-310.603824	27.461
C         -0.11400        1.63490       -0.28430
C         -0.10160        0.16200       -0.01140
C          0.48900       -0.99480       -0.77030
C          1.54930       -1.27330        0.35850
C          0.48640       -0.57480        1.21740
C         -0.43030       -1.36920        1.80550
C         -1.65600       -1.48310        0.90330
C         -1.05250       -0.91320       -0.39420
H          0.88140        2.07580       -0.15780
H         -0.44220        1.83780       -1.30930
H         -0.79520        2.16150        0.39400
H          0.73770       -0.99870       -1.83020
H          1.80270       -2.30230        0.62970
H          2.46150       -0.70780        0.13440
H         -0.14670       -2.20690        2.43760
H         -1.94400       -2.54040        0.84850
H         -2.56040       -0.92390        1.18510
H         -1.68140       -0.79050       -1.27590
