13
gdb 4085	3.64961	1.91681	1.25682	3.5563	69.28	-0.202	-0.0566	0.1453	886.9405	0.096208	-394.754336	-394.747078	-394.746134	-394.786368	26.477
O         -0.10050        1.31670        0.00920
N          0.02970       -0.06800       -0.00070
C         -1.12320       -0.63700        0.00890
C         -2.47160       -0.09160        0.02640
C         -3.31740       -1.14360        0.01890
N         -2.63170       -2.35050       -0.01410
C         -1.24740       -2.13460       -0.00090
N         -0.29790       -2.98180        0.00300
H          0.81760        1.60960        0.00000
H         -2.72910        0.95270        0.03600
H         -4.39840       -1.14610        0.02720
H         -3.05700       -3.25830        0.04490
H         -0.65380       -3.93960       -0.00620
