15
gdb 5771	6.07745	1.49118	1.30274	2.8484	67.79	-0.2106	0.0312	0.2418	923.5056	0.122468	-358.855563	-358.849028	-358.848084	-358.886564	24.724
C          1.00910        1.04740        0.03890
N          0.30730        0.04100       -0.76930
C         -0.37170        0.61340        0.40750
C         -0.62730       -0.33990        1.50440
N         -1.31120       -0.11150        2.60590
C         -1.25240       -1.28860        3.31760
C         -0.52860       -2.23190        2.63620
N         -0.13050       -1.60820        1.47560
H          1.85520        0.67010        0.60550
H          1.13490        2.04930       -0.36260
H         -0.05180        0.45080       -1.62620
H         -1.16470        1.34050        0.25850
H         -1.73610       -1.38920        4.27740
H         -0.27090       -3.25470        2.85430
H          0.36850       -1.99510        0.69050
