18
gdb 13192	5.03568	1.15287	1.05333	3.2819	68.11	-0.25	-0.0192	0.2308	1163.4731	0.152397	-384.937846	-384.929092	-384.928148	-384.972702	30.028
C         -0.43870        1.47660       -0.11080
C         -0.11330       -0.01180       -0.20020
C          0.84210       -0.36560       -1.33080
O          1.37560        0.47870       -2.01450
C          1.06110       -1.84950       -1.57200
C          0.06300       -2.49950       -2.57800
O          1.12360       -2.83870       -3.48080
C          2.11860       -2.23740       -2.62120
H          0.47310        2.06550        0.01310
H         -0.92800        1.82550       -1.02410
H         -1.10210        1.67790        0.73470
H          0.34300       -0.37440        0.73250
H         -1.02290       -0.61740       -0.31950
H          1.12230       -2.38650       -0.62270
H         -0.46840       -3.38330       -2.20430
H         -0.66210       -1.80950       -3.02970
H          2.60550       -1.37780       -3.09190
H          2.86900       -2.96560       -2.29380
