12
gdb 3675	6.18294	2.69067	1.89682	3.2499	57.25	-0.2371	-0.0672	0.17	636.8701	0.091367	-319.572842	-319.566801	-319.565857	-319.605232	20.709
C         -0.02340        1.51370        0.02990
C         -0.00000        0.01290        0.01560
C          0.06590       -0.72420       -1.17900
N          0.08690       -2.04900       -1.20120
N          0.04350       -2.70420       -0.03820
C         -0.01860       -1.97740        1.07310
N         -0.04320       -0.64230        1.17130
H          0.87410        1.92170       -0.44750
H         -0.88570        1.89510       -0.52770
H         -0.07570        1.87240        1.05840
H          0.10290       -0.23210       -2.14730
H         -0.05240       -2.54120        2.00160
