17
gdb 9623	3.21935	1.38604	1.17276	4.5758	66.5	-0.2413	-0.021	0.2203	1059.5969	0.139906	-400.97997	-400.971008	-400.970063	-401.013573	31.728
C         -0.32600        1.76430        0.57190
C         -0.06250        0.38100        0.01360
C         -1.30260       -0.27520       -0.57750
O         -0.93080       -1.48900       -1.20730
N          1.20910        0.17440       -0.66210
C          0.96290       -0.54530        0.61350
C          1.81630       -0.14950        1.76500
O          1.96810       -0.83000        2.74990
H          0.59940        2.23890        0.90000
H         -0.77260        2.40460       -0.19730
H         -1.01680        1.72310        1.42090
H         -2.04060       -0.44320        0.22180
H         -1.75200        0.42340       -1.30220
H         -1.71680       -1.89920       -1.57750
H          1.08080       -0.48910       -1.42410
H          0.72290       -1.60330        0.57090
H          2.32330        0.83320        1.64760
