14
gdb 11761	4.94515	1.79972	1.62679	1.8664	67.85	-0.2416	-0.0072	0.2344	800.0709	0.106641	-345.313932	-345.307571	-345.306627	-345.344099	25.708
C          0.08390       -1.20300       -0.01540
C          0.04870       -0.00200        0.00080
C         -0.02370        1.43360        0.03250
C         -0.32930        2.27300        1.32420
C          0.43360        3.28680        0.42560
O          1.25650        2.16640       -0.04110
C         -0.54860        3.46390       -0.74900
C         -0.86590        2.19930       -1.02170
H          0.12300       -2.26430       -0.03210
H         -1.37270        2.46630        1.57860
H          0.25770        1.93490        2.18030
H          0.99900        4.13420        0.80720
H         -0.87550        4.38890       -1.19970
H         -1.51990        1.75540       -1.75640
