17
gdb 11127	7.27236	1.00471	0.93361	4.8966	68.15	-0.2413	0.0246	0.2659	1228.0225	0.141236	-400.993126	-400.984576	-400.983632	-401.027708	28.994
C          0.16250        1.15940       -0.30270
O         -0.06370       -0.11400        0.26530
C         -1.40820       -0.48790        0.27200
C         -1.99350       -1.04460       -1.07330
N         -2.23540       -2.30590       -0.37190
C         -1.62160       -1.89270        0.88900
C         -2.81960       -3.47240       -0.71700
O         -2.93310       -4.42990        0.02130
H          1.23350        1.35910       -0.23010
H         -0.13310        1.19630       -1.36190
H         -0.38680        1.94530        0.23780
H         -2.03400        0.29810        0.71590
H         -2.89450       -0.55220       -1.45400
H         -1.24360       -1.11140       -1.87030
H         -0.68070       -2.40530        1.11250
H         -2.28720       -1.95480        1.75430
H         -3.19370       -3.45370       -1.76200
