19
gdb 15269	3.64402	1.22402	1.10331	1.0841	68.1	-0.227	0.0636	0.2905	1131.3485	0.163853	-402.14335	-402.133845	-402.132901	-402.177729	33.726
C         -0.73780        0.96550       -1.49240
N         -0.21620       -0.13830       -0.69520
C          1.17810       -0.12870       -0.26180
C          2.14800        0.97770       -0.61980
O          2.52570        0.93040       -1.99060
C          0.07020        0.02010        0.73690
C         -0.19790        1.29100        1.51450
O         -1.53870        1.34580        1.98110
H         -0.47000        1.97630       -1.15450
H         -0.36850        0.85680       -2.51530
H         -1.83120        0.89460       -1.51320
H          1.64440       -1.11560       -0.32780
H          1.71840        1.97010       -0.47290
H          3.02770        0.90630        0.03960
H          2.88930        0.05580       -2.16580
H         -0.19760       -0.86280        1.31760
H          0.42640        1.29740        2.41470
H          0.05880        2.19100        0.94070
H         -2.11760        1.30300        1.21300
