20
gdb 17787	5.77715	1.09315	1.07539	0.9617	76.79	-0.2501	0.0901	0.3402	1196.1581	0.177808	-348.936513	-348.928663	-348.927718	-348.96939	29.339
C         -0.42400        1.36790        0.59980
O         -0.30690       -0.02740        0.72410
C          0.98630       -0.50250        0.40010
C          0.96300       -2.01300        0.51550
C          2.27640       -2.85830        0.54040
C          2.49920       -2.40170        2.01360
C          0.98270       -2.73680        1.90130
C          1.41220       -4.01550        1.12340
H         -0.22480        1.70660       -0.43000
H         -1.44910        1.63730        0.86680
H          0.26880        1.90040        1.27170
H          1.24810       -0.21500       -0.63410
H          1.73540       -0.03570        1.05780
H          0.19770       -2.40020       -0.16670
H          3.02600       -2.93200       -0.24980
H          3.09360       -3.07420        2.63840
H          2.78280       -1.36360        2.19120
H          0.22910       -2.66470        2.68590
H          0.66860       -4.45890        0.45520
H          1.94600       -4.77870        1.69590
