17
gdb 5733	3.80096	2.04553	1.36409	1.8837	76.92	-0.1918	0.0584	0.2502	909.9837	0.143786	-326.734122	-326.7267	-326.725755	-326.766628	27.185
C         -0.07240        1.53160       -0.00300
C         -0.00800        0.03390        0.01500
C          0.08530       -0.84310       -1.04380
C          0.18010       -1.28830       -2.49610
C          0.21310       -2.75030       -1.90070
N          0.11680       -2.12150       -0.57570
C          0.04740       -2.15000        0.78730
C         -0.03080       -0.81960        1.17200
H          0.76290        1.98360        0.54530
H         -0.03710        1.91520       -1.02690
H         -0.99480        1.90690        0.45610
H         -0.68770       -1.07910       -3.12780
H          1.08690       -1.00150       -3.03580
H         -0.64200       -3.38270       -2.15720
H          1.14200       -3.30470       -2.06460
H          0.05690       -3.05920        1.36590
H         -0.09880       -0.47740        2.19540
