20
gdb 6373	4.59083	1.04378	0.95333	1.7317	72.44	-0.2641	0.0218	0.2858	1323.8277	0.174071	-386.197733	-386.187694	-386.18675	-386.233754	34.905
C         -0.08710        1.46360        0.13110
C          0.01050       -0.04230       -0.09910
C          0.77970       -0.39780       -1.35690
O          1.27270        0.39800       -2.11870
O          0.83730       -1.73550       -1.51490
C          1.54060       -2.23660       -2.68350
C          3.03680       -2.29780       -2.39350
C          0.92760       -3.59410       -2.99440
H          0.90600        1.91090        0.22160
H         -0.59030        1.95570       -0.70500
H         -0.64730        1.67570        1.04600
H          0.50000       -0.54700        0.74230
H         -0.98150       -0.50320       -0.17470
H          1.35740       -1.53370       -3.50100
H          3.57130       -2.69790       -3.26080
H          3.42650       -1.29970       -2.18240
H          3.23670       -2.94840       -1.53600
H         -0.14680       -3.50300       -3.17540
H          1.39340       -4.02100       -3.88750
H          1.07880       -4.28880       -2.16210
