16
gdb 16284	3.21098	1.83482	1.44736	4.6341	69.81	-0.2603	-0.0026	0.2577	903.1561	0.131194	-342.755173	-342.747792	-342.746848	-342.786668	27.725
C         -0.04120        1.62510       -0.01850
C          0.05500        0.10780        0.04280
C          1.09290       -0.65980       -0.82350
N          1.65850       -1.39500        0.36780
C          2.20900       -0.35760        1.24240
C          0.73640       -0.54950        1.25550
C          0.03670       -1.07600        2.38840
N         -0.55890       -1.46520        3.30100
H          0.93360        2.10300        0.12040
H         -0.43240        1.94440       -0.99010
H         -0.71670        2.00530        0.75460
H         -0.93540       -0.33340       -0.09330
H          0.65440       -1.36700       -1.52820
H          1.84190       -0.05090       -1.34040
H          2.76100       -0.75780        2.08650
H          2.62530        0.54740        0.80560
