17
gdb 13324	4.98189	1.34478	1.0837	3.0311	74.82	-0.2122	-0.0004	0.2118	1069.8486	0.143977	-363.909009	-363.901389	-363.900445	-363.941609	27.836
O          1.91610        4.15560       -0.04390
C          1.07120        3.31150        0.14970
N          1.24850        1.95320        0.11680
C          2.42300        1.23590       -0.13950
C          2.50070       -0.09970       -0.17850
C          3.88750       -0.56870       -0.53790
C          4.74150        0.71870       -0.39350
C          3.74420        1.90290       -0.45210
H          0.01610        3.55790        0.38310
H          0.42210        1.40100        0.29510
H          1.66570       -0.77520       -0.02450
H          4.24700       -1.37750        0.10880
H          3.91540       -0.96470       -1.56380
H          5.23940        0.71500        0.58100
H          5.52280        0.79460       -1.15340
H          3.70360        2.37140       -1.44310
H          3.98560        2.70540        0.24630
