21
gdb 8401	3.63414	1.61401	1.40254	2.0136	77.98	-0.2227	0.0705	0.2933	996.8438	0.18907	-329.055911	-329.047734	-329.04679	-329.088509	31.501
C         -0.01030        1.54730        0.02340
C         -0.01940        0.01170        0.03860
C          0.78320       -0.54060        1.22570
C         -1.43710       -0.52780        0.03760
C         -2.57800       -0.29010       -0.98470
N         -3.25960       -1.22740        0.02560
C         -1.92910       -1.99730       -0.00360
C         -2.56960       -0.35460        1.08790
H          1.01350        1.93210       -0.01910
H         -0.55400        1.94380       -0.83990
H         -0.47920        1.95120        0.92820
H          0.45810       -0.34030       -0.88790
H          0.34600       -0.21930        2.17820
H          0.80600       -1.63500        1.22100
H          1.81750       -0.18330        1.19880
H         -3.03530        0.70250       -1.03220
H         -2.47480       -0.72660       -1.98290
H         -1.77540       -2.56660       -0.92550
H         -1.77100       -2.62350        0.87930
H         -2.46080       -0.85390        2.05510
H         -3.02610        0.63300        1.20060
