17
gdb 18552	3.73241	2.02204	1.65201	2.783	68.35	-0.2593	0.0293	0.2886	826.6563	0.145123	-363.885804	-363.879297	-363.878353	-363.916443	25.698
N         -0.18360        1.28020       -0.24960
C         -0.08570        0.06710        0.05340
O          0.96590       -0.63790        0.60280
C          0.20160       -1.89550        0.56260
C         -0.19320       -2.38010        1.95130
C         -1.34000       -1.43810        2.37430
C         -2.10900       -1.16940        1.06320
C         -1.01680       -1.12680       -0.02060
H          0.67870        1.78600       -0.03850
H          0.72070       -2.62440       -0.06170
H         -0.55740       -3.41160        1.86580
H          0.65410       -2.38360        2.64230
H         -1.97260       -1.86590        3.15560
H         -0.92760       -0.50240        2.76560
H         -2.79420       -1.99720        0.84800
H         -2.69750       -0.24910        1.08940
H         -1.36320       -1.37510       -1.02370
