22
gdb 5983	3.89894	0.98321	0.96226	0.0065	74.37	-0.2604	0.0689	0.3294	1317.9866	0.197173	-387.334938	-387.324212	-387.323268	-387.370367	38.446
C         -0.06160        1.58320        0.10420
C          0.03040        0.04550        0.06560
C          0.70830       -0.47540        1.34750
C         -1.39450       -0.53470       -0.01280
O         -2.13650       -0.12390        1.12740
C          0.76960       -0.44300       -1.20110
C          2.21910        0.00510       -1.35730
O          2.69550       -0.55330       -2.57630
H          0.91970        2.04410        0.25120
H         -0.48000        1.97520       -0.83010
H         -0.71070        1.90240        0.92290
H          0.09290       -0.24580        2.22050
H          0.84300       -1.56260        1.30660
H          1.69230       -0.02150        1.49850
H         -1.87660       -0.18450       -0.93970
H         -1.33450       -1.63380       -0.06480
H         -3.02060       -0.49410        1.06040
H          0.76100       -1.54030       -1.22770
H          0.22490       -0.10770       -2.09310
H          2.28220        1.10340       -1.37930
H          2.82330       -0.34220       -0.50570
H          3.61000       -0.28000       -2.69200
