14
gdb 18188	4.26947	1.84334	1.49802	5.2254	66.04	-0.2548	-0.012	0.2428	823.2749	0.109472	-341.572258	-341.565912	-341.564968	-341.602809	24.343
N         -0.03630       -1.18770       -0.17910
C         -0.01210       -0.03740       -0.07310
C         -0.00610        1.42350        0.03450
C         -0.61610        1.94210        1.33750
C          0.20080        2.78520        1.96730
C          1.50260        2.90860        1.24740
N          2.22530        1.60750        1.18830
C          1.40340        2.03490        0.04790
H         -0.56930        1.81160       -0.82600
H         -1.59050        1.61250        1.67490
H         -0.01720        3.29230        2.89900
H          2.07280        3.83080        1.25290
H          3.20400        1.77330        0.95990
H          1.87820        2.27430       -0.89620
