22
gdb 14163	3.09083	2.13467	1.77295	0.06	80.93	-0.2745	0.0838	0.3583	886.7775	0.202394	-313.066136	-313.058551	-313.057606	-313.097208	31.41
C         -0.11670        1.51630        0.01060
C         -0.04000       -0.01690        0.00570
C         -1.46820       -0.54140       -0.17070
C          1.10880       -0.61050       -0.89480
C          2.09150       -0.25540        0.25950
C          0.86420       -0.62920        1.14180
C          0.78370       -2.14700        0.87530
C          0.97080       -2.13270       -0.68250
H          0.84610        2.01450        0.13110
H         -0.55630        1.87610       -0.92710
H         -0.76710        1.86010        0.82340
H         -1.89850       -0.16630       -1.10680
H         -1.54310       -1.62910       -0.18980
H         -2.10870       -0.18260        0.64380
H          1.26550       -0.25960       -1.91690
H          2.98230       -0.88270        0.36080
H          2.38280        0.79170        0.30410
H          0.77360       -0.29720        2.17810
H          1.58520       -2.68770        1.38680
H         -0.16400       -2.59120        1.18960
H          0.12540       -2.56910       -1.22020
H          1.87190       -2.66580       -0.99930
