16
gdb 6679	5.49998	0.86136	0.81338	5.6204	62.5	-0.2379	-0.0208	0.2171	1363.2774	0.128451	-417.084419	-417.074967	-417.074022	-417.120236	31.503
N         -0.30420        1.13640       -0.44500
C         -0.11210       -0.18870       -0.20300
O          0.68110       -0.87040       -0.82440
C         -0.94580       -0.77850        0.95130
N         -0.96640       -2.22770        0.96570
C         -1.79870       -2.82130       -0.07550
C         -1.98640       -4.30890        0.17360
O         -2.26990       -5.10910       -0.67840
H          0.26220        1.58920       -1.14380
H         -0.95180        1.69200        0.08580
H         -0.50660       -0.41240        1.88970
H         -1.97290       -0.39570        0.91660
H         -0.00810       -2.53700        0.82110
H         -2.80270       -2.37420       -0.01190
H         -1.44190       -2.67130       -1.10450
H         -1.85410       -4.59990        1.24070
