11
gdb 8613	2.14735	2.13172	1.50442	4.7882	62.83	-0.2934	-0.035	0.2584	872.3975	0.067783	-360.171635	-360.163204	-360.16226	-360.204232	29.87
O         -0.07330        1.42580        0.01040
C          0.01530        0.00570        0.00190
C          0.68880       -0.48790       -1.21370
C          1.26130       -0.85090       -2.20370
C          0.71180       -0.50090        1.19910
C          1.30310       -0.87450        2.17400
C         -1.38910       -0.48130        0.01270
N         -2.47040       -0.88350        0.02100
H          0.83130        1.76350        0.00350
H          1.76050       -1.18030       -3.08250
H          1.81890       -1.21330        3.03950
