18
gdb 8681	2.69506	1.62791	1.30289	3.5812	67.8	-0.2585	0.0286	0.2871	1020.0981	0.152715	-381.128118	-381.118624	-381.11768	-381.161866	34.227
C         -0.16510        1.60570        0.01180
C         -0.01450        0.08290       -0.00770
C          0.76880       -0.46790       -1.21880
N          2.12010        0.10230       -1.25710
C          0.78690       -2.02360       -1.18570
O          1.54840       -2.56170       -2.24650
C          0.08520       -0.09210       -2.47780
N         -0.45820        0.11840       -3.47630
H          0.80970        2.09790       -0.00880
H         -0.73380        1.95390       -0.85560
H         -0.69670        1.92290        0.91340
H          0.51360       -0.25710        0.89300
H         -1.00060       -0.39430        0.01220
H          2.55310       -0.03800       -0.34730
H          2.66980       -0.43550       -1.92370
H          1.28240       -2.33450       -0.25980
H         -0.23990       -2.41660       -1.17570
H          1.05320       -2.43250       -3.06430
