15
gdb 20202	3.9169	2.71225	2.06205	3.3097	64.05	-0.2478	-0.026	0.2217	680.8877	0.121588	-362.599208	-362.593747	-362.592803	-362.628439	22.634
C          0.06540        1.58800        0.06120
O          1.48830        1.97000        0.05690
C          1.92560        0.84110        0.71140
N          1.98690        0.77180        1.97780
C          1.40560       -0.54470        2.33010
C          0.67770       -0.98740        1.05080
C          0.03010        0.02530        0.02670
C          1.45760       -0.38890       -0.06290
H         -0.39900        2.02560        0.94970
H         -0.38400        1.99790       -0.84700
H          2.15040       -1.29500        2.62920
H          0.74720       -0.37560        3.18910
H          0.28050       -1.99590        0.98610
H         -0.73000       -0.42060       -0.60650
H          1.99200       -0.84420       -0.88620
