17
gdb 10280	2.5071	1.75995	1.08603	3.0158	70.74	-0.2436	0.029	0.2725	1081.9664	0.139925	-363.871978	-363.862583	-363.861639	-363.906594	33.679
C          0.31340        1.51340        0.50690
C          0.35950       -0.00600        0.34980
C          0.41210       -0.46780       -1.12890
C          1.62890       -0.03220       -1.80610
C          2.64290        0.31780       -2.35220
C          0.14920       -1.99560       -1.20040
N          1.01870       -2.71700       -1.94830
O         -0.80230       -2.48010       -0.61980
H          1.19530        1.98760        0.06540
H         -0.57310        1.93480        0.01980
H          0.27510        1.79030        1.56460
H          1.23140       -0.41370        0.87420
H         -0.52680       -0.47210        0.78720
H         -0.44970       -0.01980       -1.64380
H          3.53060        0.64380       -2.83610
H          1.81090       -2.28430       -2.39210
H          0.88000       -3.71130       -2.01660
