18
gdb 13010	2.62175	2.4694	1.65835	1.2911	72.23	-0.226	0.0193	0.2453	850.9619	0.153847	-347.79895	-347.791419	-347.790475	-347.8301	29.939
C         -0.17120        1.57440        0.01090
C          0.02770        0.05330       -0.02390
C          0.85660       -0.45740       -1.18740
C          1.82950       -1.28450       -0.79530
C          1.86600       -1.42200        0.68900
C          2.18870       -0.13590        1.44880
C          0.75710       -0.53150        1.19580
O         -0.02340       -0.95430        2.27450
H          0.78710        2.10070        0.06160
H         -0.69910        1.92480       -0.88200
H         -0.76760        1.86930        0.88170
H         -0.96760       -0.41560       -0.05220
H          0.65380       -0.16450       -2.21190
H          2.53450       -1.78330       -1.45090
H          2.09360       -2.36870        1.16520
H          2.52780       -0.25760        2.47260
H          2.63960        0.68480        0.90090
H         -0.20570       -0.18760        2.82860
