13
gdb 11090	8.94707	1.07578	1.03	4.2337	65.6	-0.2812	-0.0207	0.2605	1075.0305	0.094406	-361.411687	-361.404152	-361.403208	-361.444323	26.612
C         -0.43410       -1.11610       -0.51180
C         -0.10970        0.00070       -0.20940
C          0.26270        1.35150        0.16160
C         -0.13390        1.83930        1.58200
C          1.39050        2.01880        1.79160
O          1.68000        1.49370        0.48270
C          1.85460        3.39940        1.96160
N          2.20680        4.49040        2.10690
H         -0.71610       -2.10310       -0.78590
H         -0.01270        2.05270       -0.63490
H         -0.72800        2.75100        1.61520
H         -0.57960        1.07270        2.21340
H          1.83150        1.39920        2.58020
