19
gdb 13315	4.96967	1.14969	0.98911	4.0935	75.	-0.3137	0.0365	0.3502	1181.7776	0.167548	-327.96658	-327.958482	-327.957538	-328.000202	29.347
N          0.09030       -1.21550        0.06380
C          0.03460       -0.06120        0.08050
C         -0.01050        1.40030        0.10180
C          1.37580        2.04560       -0.06910
C          2.05720        1.77070       -1.41950
C          3.18670        2.81900       -1.48340
C          2.68410        4.03080       -0.64110
C          1.34090        3.58320       -0.01380
H         -0.68110        1.73870       -0.69800
H         -0.46490        1.71550        1.04840
H          2.02620        1.67470        0.73400
H          2.41540        0.74280       -1.51900
H          1.33250        1.94160       -2.22710
H          4.10200        2.40890       -1.04510
H          3.42980        3.09670       -2.51210
H          3.40950        4.28370        0.13750
H          2.55590        4.92950       -1.25000
H          0.50000        3.94350       -0.62070
H          1.19210        3.97000        0.99880
