16
gdb 9135	3.54832	0.94882	0.80287	2.0378	75.49	-0.2546	0.0127	0.2674	1430.9379	0.127212	-346.533305	-346.523681	-346.522736	-346.569417	33.235
C          0.17450        1.24210        0.58900
C         -0.20330        0.26680       -0.54060
C         -1.46720       -0.42280       -0.30610
C         -2.51540       -0.97860       -0.09930
C         -3.77460       -1.68800        0.16350
O         -3.56290       -3.00460        0.66850
C         -4.64930       -0.89840        1.04560
C         -5.36400       -0.27690        1.78460
H          1.12570        1.73360        0.36440
H         -0.59230        2.01180        0.71020
H          0.27550        0.71420        1.54110
H         -0.26260        0.80980       -1.49240
H          0.59370       -0.47680       -0.66880
H         -4.29780       -1.84780       -0.78830
H         -3.08030       -2.91500        1.49850
H         -5.99860        0.27620        2.43230
