14
gdb 3496	7.38326	2.05873	1.97375	1.7252	64.32	-0.233	0.0241	0.2571	679.8076	0.114205	-287.317913	-287.31208	-287.311136	-287.347273	22.88
C         -0.07250       -1.25500       -0.11060
C         -0.02740       -0.05610       -0.02590
C         -0.02260        1.38830        0.05430
C          0.02690        2.12270        1.42530
C          1.49550        1.65470        1.48100
N          1.36220        2.10790        0.01090
C          0.58630        3.30000        0.60440
H         -0.10350       -2.31390       -0.18510
H         -0.70970        1.81280       -0.68460
H         -0.73480        2.12090        2.21200
H          2.20260        2.26160        2.05170
H          1.69660        0.58860        1.59290
H         -0.07280        3.79610       -0.11370
H          1.23270        4.01660        1.11590
