18
gdb 11001	3.77135	1.72422	1.4781	3.3291	72.06	-0.2323	-0.0062	0.2261	914.5564	0.154584	-347.83677	-347.829416	-347.828472	-347.86805	28.837
C         -0.04490        1.51670       -0.00960
C          0.02230        0.00920        0.00550
C         -0.77440       -0.77030        0.99920
C          0.75110       -0.75940        1.10540
C          1.44520       -1.91820        0.47070
O          2.33740       -2.57050        0.95450
C          0.87650       -2.09200       -0.94860
C          0.29840       -0.71230       -1.32070
H          0.87890        1.95080       -0.40810
H         -0.87360        1.86370       -0.63830
H         -0.20110        1.92000        0.99570
H         -1.29340       -0.21410        1.77250
H         -1.27200       -1.68900        0.70530
H          1.21210       -0.28480        1.96260
H          1.65930       -2.44360       -1.62280
H          0.10630       -2.87220       -0.92450
H         -0.60010       -0.77640       -1.94380
H          1.04140       -0.13820       -1.88640
