18
gdb 10831	4.72038	1.47164	1.17195	4.2963	68.35	-0.2342	0.0585	0.2927	1020.99	0.156589	-381.181698	-381.17378	-381.172836	-381.213898	29.615
C          0.03090        1.58140        0.01070
C          0.01140        0.05250        0.00250
C          0.69440       -0.51590       -1.24550
N          0.73540       -1.96620       -1.17360
C          0.92640       -2.68780       -0.01400
O          1.18340       -3.87990       -0.02100
N          0.74040       -1.97860        1.15400
C          0.69910       -0.52930        1.24180
H          1.05750        1.96490        0.01090
H         -0.47680        1.98700       -0.87000
H         -0.47340        1.97750        0.89780
H         -1.02740       -0.29990        0.00260
H          0.13900       -0.22270       -2.14340
H          1.70390       -0.07970       -1.33650
H          0.98190       -2.48800       -1.99910
H          0.98990       -2.50940        1.97290
H          1.70870       -0.09370        1.33390
H          0.14680       -0.24600        2.14480
