16
gdb 10878	2.83888	2.02067	1.71204	2.1756	60.9	-0.2495	0.0555	0.305	837.225	0.128878	-420.808386	-420.800726	-420.799782	-420.83982	29.464
C          0.04860        1.41350       -0.02970
C         -0.02530       -0.07220        0.09870
O          0.60750       -0.91890       -0.96830
C          0.06200       -1.89650        0.00700
C          0.65250       -1.02220        1.14450
O          2.03350       -0.95230        1.27050
C         -1.23050       -1.03240        0.02900
O         -2.08910       -1.02830        1.13480
H          1.08100        1.75620        0.08970
H         -0.32220        1.74040       -1.00570
H         -0.56170        1.87990        0.74980
H          0.20490       -2.95360       -0.21960
H          0.20030       -1.09190        2.13280
H          2.36760       -0.90870        0.36270
H         -1.74440       -1.01070       -0.93790
H         -2.74260       -1.72470        1.01840
