18
gdb 17944	3.19594	2.24149	2.05891	1.664	70.57	-0.2326	0.0933	0.3259	786.4631	0.155689	-347.781485	-347.774824	-347.77388	-347.811888	26.751
C          0.00260        1.52830       -0.04140
C          0.00300        0.03130        0.01200
C          0.45640       -1.04630       -0.96840
C          1.23250       -1.77990        0.12640
C          0.46620       -0.90120        1.16840
O         -0.68780       -1.55490        1.67390
C         -1.53410       -1.81570        0.54610
C         -1.00890       -0.91360       -0.56420
H          1.00570        1.94030        0.11900
H         -0.34870        1.88680       -1.01480
H         -0.65670        1.95210        0.72530
H          0.75900       -0.92930       -2.00330
H          1.11300       -2.86380        0.22910
H          2.29840       -1.53620        0.09640
H          1.02770       -0.49170        2.00790
H         -1.49530       -2.88150        0.28090
H         -2.56720       -1.57170        0.82070
H         -1.69280       -0.55250       -1.32400
