17
gdb 8081	3.68431	2.24094	1.77225	2.0299	68.23	-0.2111	0.0102	0.2213	780.2698	0.143779	-363.82751	-363.820952	-363.820008	-363.857571	27.183
O         -0.00520        1.43800       -0.04140
C          0.01900        0.03940        0.02370
C          0.22240       -0.72360        1.36510
N         -0.71390       -1.78120        0.83460
C         -1.34000       -0.69070       -0.00200
C          0.04230       -2.69750       -0.04510
C          0.92320       -1.96510       -1.04010
C          0.90940       -0.63350       -1.00980
H          0.90250        1.76020       -0.06890
H          1.22720       -1.06870        1.62280
H         -0.24140       -0.21650        2.21660
H         -2.10810       -0.17730        0.58380
H         -1.74040       -1.00220       -0.96950
H          0.64250       -3.36410        0.58840
H         -0.67570       -3.34250       -0.56900
H          1.52300       -2.53380       -1.74560
H          1.48130       -0.00970       -1.69110
