16
gdb 19236	3.18993	1.97972	1.54629	1.9564	69.89	-0.2494	0.0421	0.2915	863.5835	0.128791	-346.529918	-346.52229	-346.521346	-346.561635	28.911
C         -0.13960        1.56320       -0.16510
C          0.00490        0.05610       -0.03820
C          0.68410       -0.69010       -1.19860
O          2.02570       -0.19660       -1.29640
C          1.75060       -1.21160       -0.33410
C          1.14600       -0.53260        0.91530
C          1.98740        0.37610        1.66490
C          2.67840        1.13540        2.29100
H          0.80440        2.01090       -0.48410
H         -0.91110        1.81530       -0.90080
H         -0.42320        2.01230        0.79140
H         -0.94840       -0.41300        0.22330
H          0.24120       -1.10040       -2.09890
H          2.33710       -2.12180       -0.38030
H          0.70930       -1.28310        1.58220
H          3.29740        1.80310        2.83740
