20
gdb 14352	3.03496	1.99922	1.93228	1.3883	73.22	-0.2588	0.0691	0.3279	845.8897	0.179486	-349.008744	-349.001499	-349.000555	-349.039995	29.104
O         -0.05010        1.39770        0.54960
C          0.03040        0.05430        0.06870
C          0.74340       -0.88480        1.06340
C         -0.31940       -1.27330        2.10490
C         -0.67320       -0.21740        3.19390
C         -2.04720        0.03920        2.51140
C         -1.71060       -1.02000        1.41930
C         -1.40240       -0.49700        0.00600
H          0.84700        1.70970        0.70420
H          0.51480        0.04350       -0.91870
H          1.08580       -1.77680        0.52400
H          1.63260       -0.41780        1.50460
H         -0.14890       -2.27710        2.50030
H         -0.74020       -0.62870        4.20460
H         -0.00890        0.64900        3.21820
H         -2.91250       -0.21620        3.12860
H         -2.17810        1.05190        2.12690
H         -2.39900       -1.86770        1.39660
H         -2.10250        0.27000       -0.33810
H         -1.43170       -1.32210       -0.71500
