11
gdb 21591	3.55966	2.30445	1.39886	5.9677	60.07	-0.2573	-0.0799	0.1774	781.7687	0.071339	-430.708983	-430.702013	-430.701068	-430.740185	25.125
N          0.04060        1.29830       -0.11930
C         -0.03730       -0.02770       -0.01160
C         -1.18460       -0.76660        0.09280
N         -1.08250       -2.12480        0.19580
N         -0.14000       -2.84470        0.21480
O          1.35430       -1.98930        0.08740
C          1.33040       -0.69520       -0.01380
O          2.31190        0.02100       -0.10970
H          0.97710        1.67570       -0.18630
H         -0.76630        1.89740       -0.13380
H         -2.18690       -0.36340        0.10130
