12
gdb 21612	4.14471	2.06875	1.37997	2.8626	62.1	-0.2339	-0.0702	0.1637	811.7272	0.086373	-407.016376	-407.009576	-407.008631	-407.047486	24.781
N          0.01120        1.30570        0.00810
C         -0.05920       -0.03710        0.00100
N         -1.21200       -0.64400        0.00390
C         -1.18070       -2.02160       -0.00400
N         -2.15110       -2.84480       -0.00320
N          0.12000       -2.57570       -0.01430
N          1.25450       -1.90390       -0.01680
N          1.22000       -0.63230       -0.00940
H          0.91170        1.75050        0.00560
H         -0.83400        1.84860        0.01580
H         -3.02740       -2.32500        0.00450
H          0.21260       -3.58200       -0.02040
