16
gdb 14315	5.25405	1.62699	1.33063	4.1397	72.99	-0.2328	-0.0378	0.195	905.8308	0.132097	-346.616694	-346.610217	-346.609273	-346.647311	25.493
O          0.05920       -0.00810        0.13300
C          0.00470        1.19420        0.03850
C         -1.30850        2.02740       -0.08380
C         -0.81290        3.43870       -0.40380
C         -0.79090        4.70000        0.53420
C          0.75610        4.83490        0.24420
C          0.66750        3.38320       -0.14530
C          1.13760        2.16280        0.12740
H         -1.98100        1.58790       -0.82390
H         -1.81590        1.97900        0.88670
H         -1.05710        3.75010       -1.42500
H         -1.42290        5.54490        0.25340
H         -0.97220        4.43290        1.57790
H          0.93660        5.49990       -0.60620
H          1.42780        5.10580        1.06100
H          2.12070        1.87190        0.47350
