22
gdb 6617	3.33587	1.48052	1.32958	1.346	77.82	-0.2588	0.0658	0.3246	1065.4461	0.19901	-350.204387	-350.195206	-350.194262	-350.237459	35.406
C         -1.51440       -0.25990       -0.18700
C         -0.02200        0.00600        0.02690
C          0.24680        1.50740        0.20000
O          0.30560       -0.68540        1.24050
C          0.79160       -0.55420       -1.15190
C          2.34640       -0.59840       -1.06660
C          2.30580       -1.97930       -1.77380
C          0.80560       -2.08970       -1.39370
H         -1.86950        0.22550       -1.10090
H         -1.70310       -1.33370       -0.26820
H         -2.09140        0.12340        0.65930
H         -0.30480        1.89390        1.06210
H          1.31420        1.69840        0.36280
H         -0.05740        2.07160       -0.68750
H          1.19150       -0.41610        1.50380
H          0.48990       -0.02770       -2.06500
H          2.90990        0.20770       -1.54270
H          2.69450       -0.69780       -0.03230
H          2.44640       -1.88220       -2.85430
H          2.98160       -2.75520       -1.40620
H          0.66660       -2.62040       -0.44810
H          0.11880       -2.49830       -2.13870
