11
gdb 21682	7.57204	1.35377	1.14937	4.0406	56.39	-0.2576	-0.0944	0.1632	935.5117	0.072648	-430.72395	-430.71724	-430.716296	-430.755003	23.83
N          0.03470        1.34810        0.14210
C         -0.01140       -0.01150        0.04260
N         -1.13570       -0.70370        0.00050
O         -0.69110       -2.03080       -0.02610
C          0.63870       -1.98320       -0.00740
C          1.43450       -3.23530       -0.03310
O          0.95350       -4.33730       -0.06870
N          1.13100       -0.77820        0.03270
H          0.88950        1.76950       -0.18540
H         -0.80810        1.83610       -0.11950
H          2.52360       -3.04100       -0.01620
