17
gdb 7090	4.89763	0.87582	0.75343	1.9166	77.87	-0.2517	-0.0148	0.2369	1522.8353	0.139897	-363.851718	-363.842014	-363.841069	-363.888494	32.404
C         -0.05580        1.51120       -0.18880
C          0.02290        0.00690       -0.00940
O          0.65030       -0.53210       -1.18480
C          0.81170       -1.86810       -1.21480
N          0.42990       -2.61570       -0.25460
C          1.44570       -2.30280       -2.42750
C          1.97490       -2.71490       -3.42860
C          2.61350       -3.20760       -4.63780
H          0.94210        1.94350       -0.30480
H         -0.64640        1.76880       -1.07250
H         -0.52910        1.96470        0.68720
H          0.61130       -0.27370        0.87060
H         -0.96660       -0.44730        0.10790
H          0.63870       -3.58890       -0.46520
H          1.95810       -3.90370       -5.17250
H          2.85900       -2.38610       -5.31880
H          3.54210       -3.73930       -4.40310
