17
gdb 18865	3.70418	2.33903	1.93383	0.7592	74.47	-0.2073	-0.0327	0.1746	762.6377	0.142723	-326.607339	-326.600808	-326.599864	-326.637523	26.469
C          0.18390        1.49340        0.25630
C          0.01500       -0.00030        0.09470
N          0.64140       -0.67530       -1.14970
C          2.06860       -1.28970       -0.98010
C          3.07200       -0.96300        0.14310
C          2.09240       -0.60830        1.25420
C          0.85430       -1.01240        0.89140
C          0.89550       -1.90150       -0.35370
H          1.23660        1.78730        0.25570
H         -0.32150        2.01060       -0.56560
H         -0.26770        1.83180        1.19490
H         -1.04690       -0.25780        0.01150
H          2.41810       -1.58690       -1.96490
H          3.73860       -1.82730        0.28000
H          3.71410       -0.09520       -0.04750
H          2.24760        0.30410        1.82250
H          0.40530       -2.85020       -0.54250
