9
gdb 52	9.50228	9.29497	4.69874	0.5571	39.2	-0.2246	0.0199	0.2445	289.005	0.069883	-229.969129	-229.965414	-229.96447	-229.995393	13.358
O         -0.03260        1.35070        0.00970
C          1.25320        1.79170       -0.00030
C          2.11660        0.74380       -0.01440
C          1.30400       -0.43850       -0.01280
C          0.01630       -0.00780        0.00190
H          1.37950        2.86160        0.00430
H          3.19380        0.79870       -0.02460
H          1.63860       -1.46380       -0.02160
H         -0.93740       -0.50900        0.00840
