15
gdb 20950	7.40215	1.19367	1.04132	2.5817	64.75	-0.2272	0.0095	0.2367	1102.2705	0.11877	-399.792002	-399.784506	-399.783562	-399.824626	26.53
C         -0.03180        1.47570        0.01060
C          0.01000       -0.03900        0.00230
O         -1.35690       -0.50520        0.01060
C         -1.56050       -1.81390        0.00520
C         -2.73000       -2.52130        0.01050
C         -2.27510       -3.86080       -0.00010
N         -0.96780       -3.97140       -0.01080
O         -0.50380       -2.63460       -0.00730
H          0.98800        1.87110        0.00460
H         -0.55590        1.85490       -0.87070
H         -0.54200        1.84560        0.90400
H          0.51350       -0.42740       -0.88930
H          0.52740       -0.43680        0.88160
H         -3.73400       -2.13670        0.02020
H         -2.86510       -4.76730       -0.00030
