15
gdb 8248	5.82468	1.12126	0.99643	3.4194	67.86	-0.2518	0.0317	0.2836	1123.9462	0.1178	-362.652891	-362.644969	-362.644024	-362.685783	28.85
O          0.27020        0.00310       -0.00240
C          0.07740        1.18760        0.01670
C         -1.15850        2.12130        0.09970
C         -0.13590        3.29290        0.01720
C         -0.05970        4.23060        1.23070
C          1.12360        5.08130        1.19040
C          2.11510        5.75730        1.12000
N          0.91640        2.27560       -0.04170
H         -1.84510        2.03250       -0.74350
H         -1.71440        2.05100        1.03700
H         -0.20950        3.88500       -0.90140
H         -0.96600        4.84900        1.25900
H         -0.05490        3.62810        2.14780
H          2.98310        6.36770        1.07610
H          1.91870        2.35690       -0.12880
