15
gdb 3294	4.82682	2.63739	2.13291	2.9561	56.51	-0.2406	0.0588	0.2994	647.1013	0.125642	-345.605421	-345.59913	-345.598185	-345.635634	23.566
O         -0.16190        1.46710        0.17520
C         -0.02340        0.07750        0.06850
C          0.37350       -0.77060        1.32230
C         -0.84610       -1.70160        1.05640
C         -2.10500       -1.27010        1.81750
O         -2.37970       -0.22640        0.85440
C         -1.34850       -0.70070       -0.03130
H          0.71670        1.85890        0.19820
H          0.61090       -0.20700       -0.78670
H          1.35590       -1.24470        1.26840
H          0.29610       -0.21480        2.26080
H         -0.66050       -2.76080        0.88980
H         -2.90990       -2.01780        1.83160
H         -1.96130       -0.87670        2.83160
H         -1.73800       -0.95010       -1.02260
