15
gdb 20927	5.86592	1.28267	1.1437	3.2776	65.81	-0.2192	0.001	0.2202	1043.5081	0.119125	-395.968129	-395.960386	-395.959442	-396.001563	27.302
C          0.73740        0.79970       -0.56690
C         -0.44690        0.28480        0.25730
N         -0.83170       -1.06280       -0.15000
C         -1.80780       -1.21230       -0.92880
N         -2.29830       -2.42010       -1.41710
C         -3.37390       -2.14280       -2.20360
N         -3.63150       -0.88420       -2.29260
O         -2.63240       -0.25840       -1.48620
H          1.06820        1.77620       -0.19840
H          1.57880        0.10300       -0.50690
H          0.46010        0.90820       -1.62020
H         -0.15410        0.23510        1.31240
H         -1.28210        0.99450        0.18680
H         -1.91490       -3.31560       -1.17350
H         -3.95900       -2.89610       -2.70940
