16
gdb 19402	3.13098	2.16881	1.61649	0.6478	63.98	-0.2523	0.073	0.3253	829.7886	0.129215	-383.672561	-383.665428	-383.664484	-383.703721	27.245
C         -0.05750        1.58930       -0.11380
C          0.03660        0.07850        0.03290
C          1.05100       -0.67390       -0.85890
O          2.36050       -0.23050       -0.48300
C          1.73860       -1.26070        0.30400
C          0.79340       -0.53360        1.24720
C          0.98850       -0.07780        2.61990
O          0.11450       -1.17930        2.30490
H          0.94040        2.03560       -0.09970
H         -0.54440        1.86440       -1.05560
H         -0.64320        2.02790        0.70070
H         -0.94840       -0.39820       -0.02310
H          0.92370       -1.05760       -1.86450
H          2.26540       -2.19850        0.43440
H          1.89810       -0.34170        3.15720
H          0.48660        0.82390        2.96700
