16
gdb 17201	5.1578	1.61248	1.44657	1.9012	65.32	-0.2489	0.0698	0.3187	880.4216	0.130247	-383.641157	-383.63451	-383.633566	-383.671649	26.769
O          0.14660        1.40950       -0.10200
C          0.09240        0.02580       -0.07150
C          0.00810       -0.67990        1.31980
O         -1.36290       -0.09680        1.45530
C         -1.30640       -0.65600        0.06890
C         -0.61510       -1.89350        0.63520
C         -0.08070       -3.15630        0.04940
C         -1.13290       -3.18290        1.15460
H         -0.48900        1.69610        0.57130
H          0.78670       -0.38050       -0.80890
H          0.66770       -0.61740        2.18590
H         -2.20250       -0.56510       -0.54560
H         -0.38970       -3.43520       -0.95280
H          0.93010       -3.45930        0.30310
H         -0.82180       -3.50400        2.14320
H         -2.14160       -3.48000        0.88720
