18
gdb 15766	3.79868	1.05672	0.86727	1.9897	76.7	-0.2467	0.0538	0.3005	1344.4278	0.151301	-347.761913	-347.752427	-347.751483	-347.797995	32.458
C         -0.22880        1.59450        0.03260
C         -0.10740        0.14370       -0.00160
C         -0.00470       -1.05610       -0.01760
C          0.11100       -2.51340       -0.07320
C         -1.26810       -3.20390       -0.05730
C          0.90030       -2.93190       -1.30660
C          2.34290       -3.18040       -1.26130
O          1.40830       -4.26520       -1.29830
H          0.33450        2.06040       -0.78350
H         -1.27350        1.91010       -0.06470
H          0.15420        2.00380        0.97400
H          0.67730       -2.86290        0.80070
H         -1.81910       -2.94510        0.85020
H         -1.86660       -2.89050       -0.91820
H         -1.13870       -4.28890       -0.09710
H          0.45790       -2.62340       -2.25530
H          2.94660       -3.05310       -2.15850
H          2.87750       -3.05750       -0.32030
