18
gdb 14861	3.16149	1.50621	1.19821	3.7554	68.15	-0.2423	-0.0281	0.2142	1054.8862	0.15214	-384.926612	-384.918016	-384.917071	-384.960626	29.969
C          0.02570        1.53700       -0.14140
C          0.03150        0.01230        0.01530
C         -1.37900       -0.56280        0.08690
C         -2.23210       -0.56300       -1.20370
O         -2.47320       -1.98200       -1.10600
C         -1.60130       -2.11200        0.01630
C         -0.36260       -2.93950       -0.25380
O         -0.02960       -3.35440       -1.33170
H          1.04450        1.93060       -0.20000
H         -0.49970        1.84100       -1.05320
H         -0.47240        2.02090        0.70590
H          0.57090       -0.44260       -0.82470
H          0.58520       -0.25870        0.92320
H         -1.91640       -0.12950        0.93510
H         -3.16370        0.01260       -1.17800
H         -1.67620       -0.31040       -2.11610
H         -2.10860       -2.54020        0.89470
H          0.24580       -3.13230        0.66280
