17
gdb 18455	4.13992	1.4209	1.36678	2.5308	68.9	-0.2421	-0.0236	0.2185	979.3584	0.141798	-363.834475	-363.826885	-363.825941	-363.866586	28.432
C          0.80010        1.19420       -0.70890
C          0.05390       -0.01540       -0.13270
C          0.76860       -0.60530        1.06810
C          0.67300       -2.02110        1.54370
N          1.99360       -1.40930        1.03180
C          1.91920       -2.28940       -0.18990
C          0.66100       -2.97040        0.38160
O          0.06520       -3.97860        0.13370
H          1.79270        0.91170       -1.07410
H          0.24530        1.63540       -1.54180
H          0.93930        1.97060        0.05100
H         -0.94520        0.28990        0.20110
H         -0.11080       -0.76470       -0.91190
H          0.82710        0.09780        1.89960
H          0.49280       -2.27690        2.58240
H          1.86610       -1.76860       -1.14830
H          2.76390       -2.98380       -0.20010
