15
gdb 16878	4.18441	1.96732	1.47363	4.6511	61.21	-0.2336	0.0134	0.247	826.6218	0.120657	-399.803988	-399.797491	-399.796547	-399.834644	25.238
O         -0.04310        0.11470       -0.73420
C         -0.06930        1.13440       -0.10710
C         -1.31610        1.99310        0.07730
N         -1.28620        2.63480        1.38590
C         -0.16070        3.51890        1.50900
C          0.92960        3.12590        2.48990
C          1.11010        2.89480        1.01720
O          1.06100        1.57700        0.51210
H         -1.36810        2.69700       -0.77380
H         -2.17200        1.32030        0.00160
H         -2.16230        3.08480        1.61380
H         -0.31050        4.57710        1.29300
H          1.52920        3.89950        2.95630
H          0.71810        2.25410        3.09720
H          1.83080        3.49630        0.47360
