16
gdb 17215	4.52326	1.78087	1.55622	0.7022	63.98	-0.2505	0.0587	0.3093	834.7654	0.130603	-383.675965	-383.669377	-383.668432	-383.706837	25.453
C          0.29190        1.54700       -0.05550
O          1.29520        0.53000        0.08640
C         -0.05760        0.12610       -0.01360
C         -0.74520       -0.71720        1.07290
C         -1.34800       -1.59310       -0.05240
O         -2.60730       -1.09050       -0.54510
C         -1.96580       -0.42070       -1.65590
C         -0.56550       -0.78900       -1.13700
H          0.13160        2.16990        0.82360
H          0.29930        2.07920       -1.00640
H         -0.01140       -1.24970        1.68590
H         -1.47430       -0.22060        1.71690
H         -1.34470       -2.67890        0.06460
H         -2.23130       -0.89310       -2.61000
H         -2.21260        0.64700       -1.70180
H          0.17550       -1.19540       -1.82340
