18
gdb 9122	5.19635	0.78533	0.69386	3.5498	79.98	-0.2517	-0.0422	0.2095	1650.9158	0.150747	-347.807845	-347.797844	-347.796899	-347.846483	33.437
C         -0.02920        1.58820        0.01660
C          0.02060        0.05030       -0.02300
C          0.68910       -0.48140       -1.20270
C          1.24340       -0.92190       -2.18130
C          1.91010       -1.44530       -3.35830
O          2.02410       -2.63770       -3.55370
C          2.45030       -0.39650       -4.31990
C          3.14170       -0.99580       -5.54140
H          0.97910        2.01050        0.01230
H         -0.56540        1.98270       -0.85050
H         -0.54110        1.92660        0.92190
H          0.53030       -0.33060        0.87140
H         -0.99730       -0.35830        0.01870
H          1.61090        0.25110       -4.60730
H          3.12750        0.25490       -3.75090
H          2.45340       -1.62670       -6.10940
H          3.51170       -0.20500       -6.19980
H          3.98570       -1.62320       -5.24390
