12
gdb 21710	8.58585	1.21462	1.06416	2.4706	63.09	-0.2257	-0.0116	0.2141	1014.7019	0.085974	-407.013706	-407.006506	-407.005562	-407.046051	24.46
N          0.01370        1.32690        0.05250
C          0.06600       -0.02090        0.01430
N          1.18820       -0.64750       -0.00200
C          1.14760       -2.02030       -0.01250
N          2.26040       -2.75740       -0.04680
N          1.75040       -3.98350       -0.04510
N          0.42870       -4.04420       -0.01210
N          0.02300       -2.80440        0.00940
H          0.87210        1.85090       -0.00410
H         -0.85910        1.81330       -0.03690
H         -0.90730       -0.51890        0.01340
H          2.32470       -4.81190       -0.06570
