19
gdb 8368	5.41109	1.0928	1.06809	1.8599	71.71	-0.227	0.0752	0.3022	1157.4711	0.166215	-364.97479	-364.9669	-364.965956	-365.007652	29.473
O         -0.10170        1.45940        0.00890
C          0.02440        0.04640       -0.01770
C         -1.37980       -0.54650        0.02460
C         -1.39000       -2.05690        0.00070
C         -0.76930       -3.07230        0.99760
N         -1.42690       -4.00870       -0.02920
C         -2.60190       -3.01730        0.03350
C         -0.85180       -3.03900       -1.07450
H          0.78040        1.84150       -0.01540
H          0.54360       -0.29100       -0.92950
H          0.60860       -0.31860        0.84270
H         -1.88470       -0.18650        0.92950
H         -1.94950       -0.15830       -0.82880
H          0.32010       -3.16690        1.03510
H         -1.20730       -3.14550        1.99770
H         -3.18100       -3.08500        0.95930
H         -3.25280       -3.05600       -0.84520
H         -1.36810       -3.08050       -2.03840
H          0.23100       -3.13090       -1.20160
