16
gdb 19097	3.64601	2.84448	2.78789	1.6135	65.66	-0.2371	0.0586	0.2957	630.7503	0.133677	-346.524829	-346.519915	-346.518971	-346.553438	21.811
C         -0.00790        1.52550        0.13390
C          1.52630        1.47040       -0.04410
C          2.17250        0.72920        1.19800
O          1.15940        0.33420        2.15010
C          0.72840       -0.67190        1.20620
C         -0.00010       -0.01060       -0.03550
C          1.39320        0.07630       -0.75900
C          2.08350       -0.62820        0.44530
H         -0.39890        1.93390        1.06860
H         -0.48450        2.01180       -0.72180
H          2.07770        2.31980       -0.44780
H          3.05360        1.16410        1.67150
H          0.26990       -1.53680        1.68720
H         -0.86810       -0.53840       -0.43120
H          1.56550       -0.10750       -1.81680
H          2.84140       -1.40940        0.44210
