18
gdb 13175	3.93009	1.34868	1.17837	1.2956	73.55	-0.2615	0.0315	0.2929	1065.865	0.152635	-347.753245	-347.74473	-347.743785	-347.786294	31.673
O         -0.33690        1.32790       -0.03950
C         -0.03830       -0.06740       -0.01420
C          0.72350       -0.47260       -1.19910
C          1.39080       -0.77410       -2.15300
C          0.67940       -0.48970        1.27640
C          1.99240        0.23310        1.68760
C          1.49300        0.20900        3.15810
C          0.05640       -0.05250        2.63020
H          0.45630        1.78930       -0.33130
H         -1.01870       -0.56160       -0.03390
H          1.96220       -1.04930       -3.00500
H          0.83180       -1.57340        1.24430
H          2.93850       -0.25860        1.45300
H          2.02410        1.25620        1.29970
H          1.88890       -0.65150        3.70510
H          1.65440        1.10610        3.76010
H         -0.50610        0.87670        2.50930
H         -0.56180       -0.77970        3.16210
