22
gdb 6899	2.76963	1.52062	1.34081	0.9749	79.39	-0.2326	0.0826	0.3152	1098.1422	0.197364	-350.190229	-350.180095	-350.179151	-350.224456	36.737
C          0.28390        1.19650        0.27540
O         -0.34040        0.06080       -0.28910
C          0.42960       -0.54390       -1.28200
C          1.40770       -1.64680       -0.90870
C          1.64770       -2.02860        0.53680
C          0.10460       -1.96860       -1.63860
C         -1.02380       -2.66860       -0.90410
C          0.21630       -2.35450       -3.10270
H          1.23770        0.94300        0.75890
H          0.47650        1.96850       -0.48530
H         -0.40080        1.60250        1.02400
H          0.70700        0.13660       -2.09050
H          2.29740       -1.70230       -1.53280
H          0.80670       -1.74370        1.17270
H          1.80320       -3.10770        0.64610
H          2.54130       -1.52810        0.92590
H         -1.16180       -2.28380        0.10640
H         -1.96940       -2.52540       -1.43960
H         -0.83940       -3.74770       -0.84430
H          0.42410       -3.42600       -3.21010
H         -0.71560       -2.14090       -3.63990
H          1.02290       -1.80990       -3.60390
