17
gdb 13007	2.75988	2.46148	1.72815	2.5768	68.29	-0.2326	0.0028	0.2354	817.7296	0.143218	-363.84382	-363.836609	-363.835665	-363.874781	28.505
C         -0.04190        1.49780        0.02140
C          0.12740        0.00460       -0.01360
N         -0.79390       -0.87760        0.74340
C          0.66800       -0.82740        1.08470
C          1.42930       -1.94890        0.45320
C          1.34630       -1.87520       -0.87580
C          0.51080       -0.68870       -1.33830
O         -0.62830       -1.07120       -2.09010
H          0.87510        2.00510       -0.29750
H         -0.84650        1.80900       -0.65480
H         -0.28720        1.85010        1.02920
H         -1.30900       -0.30580        1.41260
H          0.95510       -0.41080        2.04460
H          1.93120       -2.72230        1.02280
H          1.74510       -2.59290       -1.58350
H          1.08100       -0.01430       -1.98870
H         -1.20920       -1.50190       -1.44610
