20
gdb 8361	5.20632	1.21135	1.18735	0.9951	76.27	-0.2465	0.0969	0.3434	1124.0716	0.177276	-348.955376	-348.947468	-348.946524	-348.9882	30.072
C         -0.11420        1.48230        0.01120
C         -0.00800       -0.03270        0.00250
O         -1.32300       -0.57120        0.01120
C         -1.38210       -1.94490        0.00500
C         -0.84870       -2.95330        1.07940
C         -1.57960       -3.79740       -0.00250
C         -2.71270       -2.72900        0.01160
C         -0.86560       -2.94280       -1.08730
H          0.88240        1.93400        0.00470
H         -0.66120        1.83370       -0.86820
H         -0.64540        1.82470        0.90380
H          0.53450       -0.37870       -0.89060
H          0.55000       -0.38780        0.88240
H          0.23420       -3.08530        1.15020
H         -1.31800       -2.90690        2.06580
H         -1.70230       -4.87750       -0.00670
H         -3.31350       -2.66090        0.92220
H         -3.32760       -2.65210       -0.88890
H         -1.35020       -2.88690       -2.06580
H          0.21610       -3.07400       -1.17630
