17
gdb 15355	4.25188	1.20009	1.07954	2.848	71.27	-0.2252	0.0516	0.2768	1120.8967	0.140033	-363.778337	-363.769523	-363.768579	-363.812015	31.741
O         -0.03350        1.57500        0.05380
C         -0.02420        0.18320        0.34050
C         -1.37370       -0.44470        0.05320
C         -2.59270        0.37920       -0.17770
N         -2.03520       -0.43840       -1.25260
C         -1.39360        0.25810       -2.37530
C         -2.37810        0.63010       -3.38750
C         -3.18160        0.95560       -4.21930
H          0.86320        1.90850        0.15340
H          0.75310       -0.33420       -0.24520
H          0.20290        0.00500        1.40360
H         -1.48310       -1.39880        0.56810
H         -3.55830        0.06120        0.20630
H         -2.44440        1.45460       -0.22730
H         -0.83810        1.15310       -2.06080
H         -0.66540       -0.43360       -2.81900
H         -3.89240        1.23740       -4.95570
