10
gdb 21477	8.64802	1.26383	1.1046	2.8377	52.04	-0.3004	-0.0862	0.2142	953.5751	0.059687	-446.703838	-446.697327	-446.696383	-446.735896	21.722
N         -0.17840        1.29330        0.13800
C         -0.02060        0.06190       -0.01760
O         -1.15250       -0.73490        0.04780
C         -0.99790       -2.05400        0.02420
N          0.11040       -2.73330        0.12050
O         -0.30810       -4.02710        0.04280
N         -1.68710       -4.05050       -0.09030
N         -2.10590       -2.86500       -0.10310
H          0.71140        1.78070        0.04950
H          0.89090       -0.50470       -0.21430
