14
gdb 3425	4.8097	2.90049	2.0779	3.8644	57.1	-0.2369	0.0309	0.2679	628.5342	0.116276	-324.610004	-324.604264	-324.60332	-324.639432	22.086
O          0.00190       -0.01700       -0.11580
C          0.02420        1.18890       -0.00380
N         -1.07060        1.99950        0.19870
C         -0.83040        3.42360        0.03650
C          0.69410        3.51610        0.01200
C          1.42520        2.94880        1.19110
C          1.22460        2.09900       -0.04880
H         -1.99310        1.59690        0.22970
H         -1.25620        3.80160       -0.90350
H         -1.26890        4.00260        0.85910
H          1.14600        4.31750       -0.55860
H          2.43100        3.31090        1.37210
H          0.86790        2.69200        2.08660
H          2.07380        1.78700       -0.64100
