20
gdb 13980	5.19066	1.19489	1.10792	0.812	76.06	-0.2401	0.0981	0.3382	1164.3412	0.176417	-348.970338	-348.961992	-348.961048	-349.003521	31.195
C          0.08880        1.52530       -0.02060
C          0.19120        0.01160        0.04580
O          0.44260       -0.47590       -1.26850
C          0.57920       -1.84460       -1.33900
C          1.84280       -2.54640       -0.91870
C          1.37700       -2.63870       -2.35780
C          0.24290       -3.66670       -2.46100
C         -0.59410       -2.83150       -1.43270
H          1.01850        1.95600       -0.40340
H         -0.72620        1.82700       -0.68470
H         -0.10250        1.93850        0.97440
H          1.00450       -0.29880        0.71900
H         -0.74150       -0.42230        0.43810
H          2.68450       -1.87910       -0.76260
H          1.82870       -3.42310       -0.27340
H          1.99360       -2.28460       -3.17460
H         -0.22540       -3.70280       -3.44670
H          0.50250       -4.68630       -2.15800
H         -0.89960       -3.33090       -0.50750
H         -1.47060       -2.37470       -1.89830
