14
gdb 5369	5.36553	1.59702	1.24009	2.475	70.47	-0.2281	-0.0277	0.2004	929.6873	0.10849	-378.743227	-378.73629	-378.735346	-378.774697	25.103
C          0.06250        1.43520        0.09330
N          0.11420       -0.01230        0.05560
C          0.51870       -0.61150       -0.99480
C          0.57480       -2.07070       -1.04250
C          0.99990       -2.68750       -2.14640
O          1.39570       -1.99630       -3.26420
C          1.32510       -0.64140       -3.17030
N          0.94080        0.05010       -2.18180
H          0.68310        1.78890        0.92600
H          0.38800        1.92700       -0.82920
H         -0.96470        1.74570        0.32180
H          0.26760       -2.63660       -0.17290
H          1.08200       -3.75600       -2.29230
H          1.65730       -0.18680       -4.10000
