18
gdb 13507	2.99405	1.82321	1.25037	3.5128	63.85	-0.2398	0.0453	0.285	983.1794	0.152502	-422.051464	-422.042785	-422.041841	-422.084657	31.706
C          0.09020        1.53690        0.00170
C          0.09000        0.01640        0.00710
O         -1.23500       -0.43320        0.25470
C          0.56540       -0.54360       -1.33620
O          1.97520       -0.30570       -1.58140
C          2.28580       -1.71020       -1.47890
C          0.78670       -2.07200       -1.39540
O          0.33210       -2.75520       -0.24210
H          1.08800        1.91140       -0.24250
H         -0.62080        1.91270       -0.74150
H         -0.20460        1.92090        0.98190
H          0.77560       -0.34270        0.78960
H         -1.17500       -1.39260        0.34460
H         -0.05670       -0.13440       -2.14180
H          2.83890       -2.07470       -2.35240
H          2.84080       -1.95180       -0.56310
H          0.39330       -2.53560       -2.30630
H          0.37540       -3.70280       -0.39880
