14
gdb 18569	3.9921	2.06238	1.69139	4.276	56.63	-0.2702	0.0036	0.2738	764.0526	0.109219	-419.704917	-419.698858	-419.697914	-419.735273	22.896
O         -0.23750        0.18830        0.44060
C         -0.06740        1.29980        0.06050
O         -0.99270        2.15520       -0.48650
C          0.00490        3.21850       -0.65040
C         -0.16620        4.33370        0.37080
O          0.31400        3.80030        1.59800
C          1.44140        2.99060        1.28900
C          1.08860        2.30220       -0.03580
H          0.07230        3.52970       -1.69210
H          0.42670        5.20860        0.05570
H         -1.20610        4.63660        0.51090
H          2.34790        3.60370        1.16250
H          1.59620        2.29510        2.11670
H          1.93930        1.98620       -0.63760
