19
gdb 11970	2.77332	2.02372	1.73439	2.8023	71.38	-0.2336	0.0654	0.299	879.9091	0.164661	-365.02804	-365.019742	-365.018798	-365.060169	32.021
C         -0.12830        1.52870        0.01130
C          0.01390        0.01050        0.00840
O         -1.24330       -0.62330       -0.14330
C          1.18240       -0.51600       -0.88840
C          2.05170       -0.72100        0.38990
C          0.77680       -0.55810        1.22040
C          0.51840       -0.32300        2.65490
N          0.24480       -1.63900        2.04120
H          0.83420        2.01720        0.18970
H         -0.50330        1.88470       -0.95730
H         -0.82560        1.84990        0.79160
H         -1.76190       -0.13350       -0.78940
H          0.90270       -1.46570       -1.34890
H          1.56360        0.16340       -1.65520
H          2.55260       -1.68490        0.49330
H          2.77940        0.08020        0.54900
H          1.34110       -0.31170        3.36560
H         -0.32240        0.31190        2.92710
H         -0.75110       -1.72860        1.84570
