22
gdb 8242	4.68672	1.06512	0.92319	1.3299	78.69	-0.2569	0.0709	0.3278	1322.1349	0.199685	-350.199668	-350.190467	-350.189523	-350.23371	34.322
C          0.05280        1.56370       -0.01890
C          0.02560        0.03450       -0.00060
O          0.74420       -0.47590        1.12290
C         -1.40060       -0.52700       -0.07200
C         -1.47710       -2.04840       -0.10820
C         -1.21750       -2.88060        1.18030
C         -2.35600       -3.84120        0.74530
C         -2.87450       -2.72550       -0.20190
H          1.08220        1.92520        0.05310
H         -0.39280        1.95980       -0.93720
H         -0.51290        1.97200        0.82830
H          0.58940       -0.33940       -0.86530
H          0.29050       -0.17560        1.91840
H         -1.97780       -0.14930        0.78700
H         -1.88930       -0.11730       -0.96720
H         -0.83660       -2.42400       -0.91620
H         -0.21670       -3.28850        1.33040
H         -1.49600       -2.31430        2.07580
H         -1.97130       -4.69910        0.18570
H         -3.03650       -4.21050        1.51630
H         -3.64180       -2.11290        0.28430
H         -3.23930       -3.01340       -1.19160
