18
gdb 13092	4.13829	1.15798	0.97513	1.3329	68.82	-0.249	-0.0267	0.2223	1184.5241	0.151955	-384.930401	-384.921733	-384.920789	-384.964783	30.137
C         -0.29580        1.55750       -0.05950
C          0.08270        0.09250       -0.01030
O          1.28220       -0.20070       -0.76680
C          1.81140       -1.00950        0.29940
C          0.69880       -0.54700        1.26950
C          1.13440        0.40530        2.38930
C          1.86620       -0.33050        3.49010
O          1.55820       -0.30980        4.65370
H          0.50810        2.19820        0.31200
H         -0.50420        1.84470       -1.09490
H         -1.19870        1.74420        0.53150
H         -0.75610       -0.51350       -0.38490
H          1.78970       -2.08000        0.05630
H          2.84000       -0.72600        0.55430
H          0.09400       -1.35550        1.68800
H          1.81990        1.16100        1.98080
H          0.28010        0.92350        2.83430
H          2.74400       -0.92580        3.14510
