14
gdb 20620	3.30967	2.05142	1.27649	1.8911	59.58	-0.2085	0.0469	0.2554	888.2177	0.10711	-415.883791	-415.875623	-415.874679	-415.916545	29.024
C          0.03860        1.57660       -0.02600
C          0.05850        0.08120       -0.01800
C          0.00080       -0.79840       -1.08390
O         -0.09360       -0.61510       -2.41860
N          0.04600       -2.05630       -0.60130
N          0.13320       -2.07940        0.76730
C          0.14050       -0.79920        1.09030
O          0.21530       -0.38890        2.37530
H          1.03050        2.01430        0.14000
H         -0.33440        1.97070       -0.97960
H         -0.61990        1.96530        0.75710
H         -0.07930        0.33050       -2.59900
H          0.01790       -2.91390       -1.12270
H          0.24200       -1.18450        2.92200
