20
gdb 11575	5.73434	0.94627	0.85989	2.8009	71.29	-0.2546	0.0732	0.3278	1349.3701	0.176348	-386.121721	-386.112614	-386.11167	-386.155696	33.588
O          0.04500        1.38740       -0.29030
C          0.06640        0.01540        0.04340
C         -1.33980       -0.57720        0.05080
O         -1.85310       -0.31580       -1.25770
C         -1.35970       -2.07160        0.38560
C         -2.75930       -2.65180        0.42450
C         -3.43810       -3.11940       -0.84780
C         -2.98990       -4.12030        0.18770
H         -0.52840        1.45250       -1.06390
H          0.68930       -0.56190       -0.66070
H          0.51430       -0.07130        1.03880
H         -1.93570       -0.02680        0.79780
H         -2.76640       -0.61670       -1.28450
H         -0.75870       -2.60840       -0.35960
H         -0.87250       -2.22110        1.35860
H         -3.41180       -2.18870        1.16190
H         -4.50270       -2.94720       -0.96600
H         -2.87190       -3.06370       -1.77170
H         -2.12730       -4.73580       -0.04530
H         -3.74860       -4.62460        0.77550
