16
gdb 19872	4.14591	2.13612	1.85065	2.5497	62.32	-0.2401	0.0723	0.3124	748.9241	0.132728	-383.692673	-383.686673	-383.685729	-383.722736	23.847
C         -0.01900        1.54320       -0.01690
O          1.35270        1.93220        0.04480
C          2.05140        1.00290        0.87230
C          1.38800       -0.35830        0.61510
C          0.64980       -1.06920        1.77280
O         -0.18980       -0.09500        2.40370
C         -0.66380       -0.72650        1.20850
C         -0.01400        0.00760        0.01280
H         -0.57710        1.94500        0.84000
H         -0.43110        1.96350       -0.93810
H          3.10410        1.04080        0.58030
H          1.96410        1.28180        1.93150
H          1.97850       -1.03330       -0.00580
H          0.96780       -1.91230        2.37490
H         -1.61770       -1.23780        1.26410
H         -0.22180       -0.45900       -0.95090
