16
gdb 20042	5.47585	1.53571	1.28737	1.5647	67.16	-0.2281	0.0415	0.2696	949.3762	0.13249	-379.908376	-379.9012	-379.900256	-379.940649	25.546
C         -0.16580        1.23420       -0.18930
C          1.13970        0.51050       -0.13110
N          0.01240        0.06070        0.66600
C         -0.60800       -1.12910        0.33810
N         -0.04760       -2.19090       -0.08690
C         -1.10450       -3.20590       -0.15570
C         -2.40810       -2.44460        0.21170
O         -1.94830       -1.12620        0.57600
H         -0.30170        2.17320        0.33780
H         -0.76710        1.11490       -1.08630
H          1.41740       -0.10800       -0.97900
H          1.96600        0.92750        0.43600
H         -1.14980       -3.64570       -1.15760
H         -0.89140       -4.02200        0.54490
H         -3.10370       -2.34640       -0.62780
H         -2.94310       -2.86920        1.06510
