19
gdb 12123	3.63539	1.78359	1.7363	1.3598	75.44	-0.2122	0.0819	0.2941	891.4777	0.164549	-327.853165	-327.845418	-327.844474	-327.884479	30.805
C          0.16380        1.46220        0.02460
C          0.02320       -0.02740        0.03920
C         -0.98070       -0.78700        0.85900
C          0.49000       -1.08990        1.01150
C          1.08270       -1.83280       -0.20470
C          2.49630       -2.33370       -0.19280
C          0.10020       -2.13340       -1.26580
N          0.63040       -0.75320       -1.15780
H          1.19040        1.75270       -0.21970
H         -0.49560        1.90590       -0.73100
H         -0.09830        1.88910        0.99760
H         -1.38360       -0.19650        1.67730
H         -1.69640       -1.49890        0.46260
H          1.01990       -0.98450        1.95000
H          2.57830       -3.25630        0.39450
H          2.84200       -2.54160       -1.20920
H          3.17060       -1.59220        0.25030
H          0.47980       -2.63350       -2.15310
H         -0.94150       -2.35060       -1.06100
