18
gdb 12200	3.85127	1.4631	1.24171	4.6278	72.38	-0.2498	0.019	0.2688	1019.8071	0.153954	-343.983384	-343.974969	-343.974024	-344.016166	30.936
C          0.07650        1.56230       -0.14420
C          0.09140        0.05500        0.03290
N          1.08950       -0.67150       -0.79280
C          1.32400       -1.64060        0.29460
C          2.71200       -2.07300        0.46470
N          3.80300       -2.42280        0.61840
C          0.72630       -0.60030        1.30370
C          1.75020        0.23000        2.06510
H          1.07110        1.98940        0.00250
H         -0.25480        1.82090       -1.15590
H         -0.61780        2.03060        0.56200
H         -0.92880       -0.33760       -0.10280
H          0.75860       -1.06800       -1.66630
H          0.69470       -2.54120        0.24630
H          0.00180       -1.03690        1.99370
H          2.51340        0.64060        1.39880
H          1.26320        1.06190        2.58350
H          2.25970       -0.38150        2.81590
