19
gdb 1565	6.24888	1.09834	0.98985	0.1428	64.09	-0.2612	0.0758	0.337	1170.6891	0.169582	-348.046805	-348.037437	-348.036493	-348.080947	32.45
C         -0.06320        1.59180       -0.07920
C          0.01940        0.06030       -0.00830
C          0.72310       -0.50030       -1.24610
O         -0.02910       -0.14020       -2.39650
C          0.72060       -0.44810        1.26100
C         -0.01080       -0.12160        2.55770
O          0.69560       -0.75230        3.61750
H          0.93500        2.03850        0.01150
H         -0.48690        1.90270       -1.03660
H         -0.68650        2.00460        0.71920
H         -1.00380       -0.34160       -0.02600
H          1.74820       -0.09650       -1.29960
H          0.80540       -1.59530       -1.15750
H          0.45470       -0.42890       -3.17530
H          0.82960       -1.53880        1.21370
H          1.73650       -0.03580        1.32070
H         -0.05760        0.96690        2.71130
H         -1.04940       -0.48830        2.49820
H          0.26570       -0.51810        4.44500
