16
gdb 17002	3.56641	2.34603	2.20995	1.1528	62.72	-0.2262	0.0714	0.2977	715.5661	0.131599	-383.677625	-383.671424	-383.67048	-383.707592	25.012
C          0.00920        1.47920       -0.00120
C          1.32620        0.74570       -0.03810
C          1.75540        0.11830        1.30150
C          0.40660       -0.69360        1.31000
C          0.04070       -0.02810       -0.03000
O         -0.05950       -0.66300       -1.27370
C          1.26680       -0.62900       -1.81060
O          1.92260        0.53010       -1.28620
H         -0.30190        2.00550        0.89790
H         -0.27530        1.94200       -0.93770
H          2.62960       -0.52630        1.19260
H          1.93200        0.81660        2.12450
H          0.56600       -1.76840        1.20560
H         -0.28560       -0.51820        2.13850
H          1.81680       -1.53970       -1.52220
H          1.20930       -0.54480       -2.89890
