18
gdb 12855	3.05028	2.28842	1.81373	0.9389	66.47	-0.2458	0.0806	0.3264	814.4876	0.154731	-384.935833	-384.928688	-384.927744	-384.96689	27.797
C         -0.09630        1.54980        0.02490
C         -0.00510        0.03850        0.04920
C         -1.32530       -0.72460       -0.08240
C         -1.00810       -2.06200        0.60170
O         -0.10260       -1.74030        1.66130
C          0.72280       -0.68690        1.21910
C          1.78230       -1.04560        0.15770
O          0.99050       -0.45610       -0.89610
H          0.88910        2.00070        0.17510
H         -0.47890        1.89400       -0.94160
H         -0.76900        1.91230        0.80900
H         -2.11880       -0.19450        0.45450
H         -1.62020       -0.83700       -1.12850
H         -1.87570       -2.55380        1.04750
H         -0.54070       -2.75740       -0.10970
H          1.05600       -0.11910        2.08940
H          2.74860       -0.53860        0.27490
H          1.94990       -2.11900        0.01210
