10
gdb 21818	3.92848	2.04974	1.34695	2.5208	50.54	-0.2827	-0.0563	0.2264	795.1668	0.061113	-450.643337	-450.637216	-450.636272	-450.674012	21.32
O         -0.03900       -0.06090       -0.00030
C         -0.00170        1.13430        0.00760
N          1.18610        1.88360       -0.00020
N          2.45200        1.31510       -0.01820
C          3.22550        2.33410       -0.01920
O          2.61090        3.54540       -0.00360
C          1.24620        3.27750        0.00910
O          0.37850        4.09420        0.02490
H         -0.86980        1.81230        0.02220
H          4.30350        2.31510       -0.03100
