19
gdb 9896	4.74202	1.04847	0.98532	2.9177	76.43	-0.2457	0.0278	0.2735	1276.2794	0.162979	-365.047367	-365.038302	-365.037357	-365.081123	32.886
C         -3.21010       -3.35670       -0.78100
N         -1.97240       -2.63310       -0.58080
C         -0.97930       -2.99110       -1.26410
O          0.21710       -2.38000       -1.10940
C          1.23460       -2.75090       -2.02420
C          1.09580       -2.09320       -3.37680
C          2.57760       -2.91740       -1.38600
C          1.81740       -4.13430       -1.87760
H         -4.00030       -2.65870       -1.08070
H         -3.14800       -4.15410       -1.54030
H         -3.53010       -3.80930        0.16480
H         -0.98060       -3.80650       -2.00280
H          1.06540       -1.00460       -3.26730
H          1.94060       -2.35270       -4.02070
H          0.17670       -2.40940       -3.88220
H          3.45040       -2.58860       -1.93870
H          2.62760       -2.76380       -0.31460
H          1.38540       -4.78420       -1.12540
H          2.16540       -4.64230       -2.77050
