18
gdb 13431	3.77125	1.38957	1.23441	1.1813	73.38	-0.2523	0.051	0.3033	1042.5418	0.151796	-347.752981	-347.744078	-347.743134	-347.786392	32.977
C          0.13890        1.62810       -0.26670
C          0.03410        0.12730       -0.10120
C          1.26980       -0.72910        0.01740
O          2.50000       -0.06640        0.05280
C          0.34420       -0.59020        1.20440
C          0.83600        0.15140        2.44360
C          1.94400       -0.54780        3.09490
C          2.86780       -1.14170        3.58660
H          1.08910        2.00770        0.11320
H          0.08930        1.89290       -1.32800
H         -0.67900        2.14860        0.24350
H         -0.77650       -0.32360       -0.66780
H          1.28580       -1.68250       -0.51040
H          3.00250       -0.42690        0.79410
H         -0.26700       -1.45810        1.43440
H          1.16230        1.16260        2.18410
H          0.00980        0.27170        3.15470
H          3.67230       -1.65910        4.04810
