17
gdb 15643	3.41144	1.84474	1.32001	1.1171	71.17	-0.2203	-0.0034	0.217	948.4604	0.143879	-360.073561	-360.065777	-360.064833	-360.106268	28.266
C         -0.01400        1.56740       -0.07280
C         -0.03880        0.04160        0.04410
N         -1.38310       -0.51020        0.04180
C         -2.12900       -0.91780        1.13660
N         -3.29980       -1.37440        0.90350
C         -3.45540       -1.29680       -0.55580
C         -2.15020       -0.71220       -1.10200
N         -1.72970       -0.42980       -2.27000
H          1.01960        1.92710       -0.07530
H         -0.49020        1.88070       -1.00460
H         -0.53840        2.03720        0.76530
H          0.49620       -0.40440       -0.79990
H          0.45370       -0.28690        0.96530
H         -1.69160       -0.83890        2.12740
H         -3.65190       -2.29090       -0.97390
H         -4.31210       -0.66440       -0.81650
H         -2.43130       -0.66260       -2.97100
