14
gdb 4722	7.00799	1.27396	1.08524	1.3227	76.71	-0.213	-0.0176	0.1954	1049.662	0.106426	-345.408168	-345.400716	-345.399772	-345.439814	27.52
C          0.00140        1.53580       -0.04170
C          0.00070        0.03940        0.01150
C         -0.06180       -0.82640       -1.03950
O         -0.04120       -2.11650       -0.62470
C          0.03750       -2.09000        0.74310
C          0.06560       -0.79190        1.17470
C          0.07380       -3.31760        1.42660
C          0.10560       -4.36280        2.02470
H          0.91090        1.95220        0.40520
H         -0.05700        1.89370       -1.07320
H         -0.84900        1.95650        0.50630
H         -0.12280       -0.67950       -2.10610
H          0.12550       -0.47310        2.20380
H          0.13360       -5.28420        2.55150
