24
gdb 5992	3.95255	0.99043	0.96209	1.2506	81.79	-0.2591	0.0642	0.3233	1396.2616	0.220642	-351.422873	-351.4121	-351.411156	-351.458097	39.676
C          0.14870        1.63020       -0.01240
C         -0.00180        0.10610       -0.01490
C          0.59590       -0.54720        1.23660
C          0.66530       -2.09170        1.21860
C         -0.72080       -2.72230        1.05970
O          1.40810       -2.53220        0.07060
C          1.36620       -2.57340        2.51080
C          1.60120       -4.08410        2.60070
H          1.20330        1.92600        0.02730
H         -0.28690        2.07480       -0.91280
H         -0.35010        2.07910        0.85420
H         -1.06480       -0.14830       -0.09700
H          0.48490       -0.31880       -0.89950
H          1.62080       -0.17020        1.37600
H          0.03910       -0.22580        2.12700
H         -1.18420       -2.40410        0.12340
H         -0.64710       -3.81160        1.03720
H         -1.37450       -2.43340        1.88830
H          2.29400       -2.15820        0.13620
H          2.33430       -2.05570        2.57460
H          0.78710       -2.22920        3.37690
H          2.08880       -4.45060        1.69330
H          2.23910       -4.32530        3.45640
H          0.66560       -4.63730        2.72480
