18
gdb 16207	3.00977	2.20784	1.47492	2.8413	72.16	-0.2351	-0.0119	0.2231	888.7878	0.155098	-347.83516	-347.827929	-347.826984	-347.86661	28.144
O          0.07850        0.02450       -0.10330
C          0.02170        1.22880       -0.02430
C         -1.24730        2.07430        0.11820
C         -0.74430        3.43890        0.61880
C          0.65700        3.58730       -0.02310
C          1.19640        2.16510       -0.03760
C          2.41710        1.72230        0.76170
C          2.46370        1.72210       -0.73100
H         -1.69380        2.16330       -0.88180
H         -1.98330        1.58180        0.75710
H         -1.41280        4.26430        0.36320
H         -0.64940        3.41930        1.71030
H          0.55890        3.96720       -1.04820
H          1.29670        4.28680        0.52200
H          2.95480        2.49500        1.30100
H          2.34270        0.76470        1.26510
H          2.41970        0.76220       -1.23480
H          3.04490        2.48870       -1.23270
