17
gdb 13685	5.17215	1.02852	0.97389	4.2645	67.32	-0.2579	0.0249	0.2827	1227.2244	0.140557	-400.972445	-400.963738	-400.962794	-401.006685	30.228
C          0.38320        1.28410       -0.33580
C          0.30550       -0.12900        0.18550
O          1.50260       -0.71580        0.70940
C          0.39490       -0.52710        1.60110
C          0.59890        0.43560        2.74340
O          1.25940       -0.19180        3.84240
C          2.59700       -0.35790        3.72130
N          3.23470       -0.94600        4.63700
H          0.86170        1.29060       -1.32050
H         -0.62240        1.70220       -0.45130
H          0.96000        1.93680        0.32180
H         -0.25580       -0.80840       -0.45940
H         -0.09400       -1.45570        1.90040
H          1.15690        1.31930        2.41680
H         -0.36770        0.76180        3.13850
H          3.00860        0.05790        2.79380
H          4.22460       -0.97640        4.40160
