17
gdb 7250	4.77787	1.18442	0.96627	3.8563	72.6	-0.2405	0.0282	0.2687	1190.2129	0.139083	-363.85188	-363.842181	-363.841237	-363.887301	33.123
C         -0.11610        1.43510        0.08880
N         -0.03700       -0.01460        0.00530
C          0.02180       -0.70120        1.28030
C         -0.02440       -0.60350       -1.23550
O         -0.07690        0.04010       -2.26490
C          0.06090       -2.14590       -1.25850
C          0.06930       -2.69090       -2.60640
C          0.07910       -3.18580       -3.69980
H          0.76000        1.83950        0.61150
H         -0.15480        1.83560       -0.92230
H         -1.01430        1.74100        0.64030
H         -0.86840       -0.47530        1.88280
H          0.07950       -1.78030        1.15740
H          0.90080       -0.37750        1.85390
H          0.96500       -2.46660       -0.72540
H         -0.78450       -2.56380       -0.69700
H          0.08640       -3.60170       -4.67650
