18
gdb 13091	4.13121	1.18874	0.9964	3.7574	68.75	-0.2445	-0.021	0.2235	1173.875	0.151962	-384.931094	-384.922303	-384.921359	-384.966764	30.154
C         -0.20580        1.57620       -0.14360
C         -0.04330        0.06830       -0.01520
C          1.15900       -0.58150       -0.73790
O          1.69000       -1.10060        0.49920
C          0.60270       -0.53520        1.26700
C          1.10710        0.39740        2.36950
C          1.94580       -0.35510        3.38250
O          1.73060       -0.36950        4.56800
H          0.73100        2.10790        0.04980
H         -0.52680        1.83690       -1.15780
H         -0.96160        1.95950        0.54970
H         -0.99040       -0.42330       -0.25170
H          0.91950       -1.38190       -1.44800
H          1.85370        0.12090       -1.21720
H         -0.00340       -1.33250        1.71900
H          1.74040        1.17320        1.92060
H          0.27290        0.87620        2.89140
H          2.79930       -0.91440        2.94290
