14
gdb 19854	4.78589	2.09996	1.76132	2.0914	63.	-0.2394	-0.0123	0.2271	738.3626	0.107778	-382.454993	-382.449116	-382.448172	-382.484918	22.944
C         -0.00230        1.45570        0.12650
O          1.34690        1.94830       -0.02420
C          2.05540        0.93830       -0.69990
C          3.33590        0.18070       -0.22130
O          3.07560       -0.55510        0.97100
C          2.58270       -1.10240       -0.26710
C          1.29170       -0.33650       -0.47840
C          0.09040       -0.06550        0.01070
H         -0.37420        1.75830        1.11310
H         -0.65750        1.91190       -0.63320
H          2.20670        1.18620       -1.76490
H          4.37120        0.39220       -0.46190
H          2.89620       -2.10060       -0.54130
H         -0.66810       -0.73270        0.39870
