17
gdb 4536	3.82716	1.67568	1.18036	1.1944	73.65	-0.1672	0.0582	0.2254	1009.1722	0.143522	-360.061805	-360.053093	-360.052149	-360.095061	31.7
C          0.09330        1.43070       -0.00860
N         -0.03780       -0.00520        0.01800
C         -0.14490       -0.81090       -1.09500
C         -0.03600       -2.12370       -0.69120
N         -0.18130       -3.31490       -1.43920
C          0.15680       -2.11660        0.72200
N          0.34350       -3.29720        1.47640
C          0.16260       -0.79950        1.12680
H          1.13190        1.75670       -0.15710
H         -0.51610        1.84070       -0.81890
H         -0.26850        1.85130        0.93400
H         -0.29580       -0.38520       -2.07460
H         -0.19250       -3.13690       -2.43620
H          0.58020       -3.95740       -1.24200
H          0.30700       -3.12030        2.47290
H         -0.37070       -3.98330        1.25050
H          0.29030       -0.36280        2.10480
