24
gdb 9426	5.66694	0.75412	0.7046	0.8886	83.46	-0.2486	0.0866	0.3352	1723.9796	0.220987	-351.413403	-351.402553	-351.401608	-351.449853	38.112
C         -0.04070        1.50690       -0.00790
C         -0.01370       -0.01240        0.00630
O         -1.34260       -0.48760        0.01720
C         -1.43690       -1.89600        0.02550
C         -2.90990       -2.30690       -0.01370
C         -3.58610       -1.78070       -1.28660
C         -3.02920       -3.83350        0.14240
C         -4.46490       -4.34650        0.29290
H          0.97740        1.90750       -0.01590
H         -0.56510        1.87270       -0.89540
H         -0.55810        1.88950        0.87650
H          0.52170       -0.39790       -0.87850
H          0.53030       -0.38080        0.89330
H         -0.90240       -2.31980       -0.84440
H         -0.95220       -2.30330        0.92990
H         -3.39190       -1.83400        0.85380
H         -3.41110       -0.70780       -1.39200
H         -3.18050       -2.27860       -2.17650
H         -4.66610       -1.95110       -1.27170
H         -2.55720       -4.32050       -0.72250
H         -2.44830       -4.14540        1.02030
H         -4.47730       -5.42850        0.45740
H         -4.96510       -3.87500        1.14630
H         -5.06620       -4.14310       -0.59820
