12
gdb 8731	2.47689	1.91889	1.3277	1.4103	57.43	-0.2665	-0.1134	0.1532	907.8809	0.079562	-418.442739	-418.434313	-418.433369	-418.476176	28.765
O          0.01590        1.46600        0.12580
C          0.07110        0.06510        0.15630
C          0.46440       -0.53860       -1.12520
C          0.82810       -1.02890       -2.16030
C          1.10230       -0.40290        1.19520
O          1.92680        0.35340        1.64750
C          1.05620       -1.85900        1.66240
O          0.13610       -2.59040        1.41410
H          0.87810        1.77900        0.43820
H         -0.91330       -0.32300        0.44650
H          1.12570       -1.45890       -3.08530
H          1.92700       -2.14790        2.28560
