14
gdb 16798	3.74588	1.95639	1.39379	4.0216	64.44	-0.2419	-0.0657	0.1762	861.5665	0.106773	-382.545447	-382.538583	-382.537639	-382.576482	25.563
C         -0.02450        1.48900        0.07560
C         -0.02080        0.00190       -0.02520
C          0.01410       -0.76220       -1.13070
C         -0.00620       -2.20860       -0.78590
O         -0.07550       -3.15160       -1.53610
C          0.02840       -2.27050        0.74340
O          1.20950       -1.65860        1.29440
C          0.00040       -0.88150        1.20110
H          0.85530        1.83770        0.63080
H         -0.02690        1.96300       -0.90820
H         -0.90240        1.83980        0.63220
H          0.07150       -0.41350       -2.15420
H         -0.37690       -3.12200        1.27990
H         -0.43110       -0.56130        2.14460
