19
gdb 2367	4.10259	1.83366	1.49805	1.758	67.63	-0.2563	0.0865	0.3428	905.0786	0.169584	-310.912792	-310.904256	-310.903312	-310.9455	30.848
C         -0.75370       -1.36560       -0.88020
C         -0.87350       -1.67240        0.61990
C         -1.02980       -3.17750        0.88090
C          0.33970       -1.13710        1.35240
O          0.46430        0.28390        1.48380
C          0.32970       -0.49620        2.67910
C         -0.89540       -0.26480        3.52680
H          0.11950       -1.86710       -1.31440
H         -1.63980       -1.71040       -1.42270
H         -0.64310       -0.29050       -1.04750
H         -1.76120       -1.15520        0.99990
H         -0.14890       -3.73020        0.53330
H         -1.15790       -3.39090        1.94700
H         -1.89940       -3.57610        0.34920
H          1.27330       -1.62640        1.05600
H          1.25710       -0.56310        3.25350
H         -0.80080        0.68040        4.07190
H         -1.80600       -0.21620        2.92680
H         -1.00450       -1.06570        4.26630
