19
gdb 10827	4.47763	1.43476	1.14359	3.939	71.94	-0.2337	0.0336	0.2673	1056.7934	0.167706	-365.12242	-365.114531	-365.113586	-365.154608	29.943
C          0.00240        1.58280        0.02860
C          0.01480        0.05310       -0.01300
C          0.69800       -0.49880       -1.27020
C          0.60220       -2.02740       -1.31050
C          0.97200       -2.72310       -0.00420
O          1.28180       -3.89990        0.03800
N          0.87730       -1.96520        1.13230
C          0.71770       -0.51990        1.22150
H          1.02140        1.98580        0.00190
H         -0.53970        1.99180       -0.82940
H         -0.48060        1.95590        0.93800
H         -1.02350       -0.30780       -0.00500
H          0.24740       -0.06920       -2.17180
H          1.75170       -0.18700       -1.27020
H         -0.42710       -2.33240       -1.54030
H          1.23100       -2.46170       -2.09150
H          1.15820       -2.46210        1.96580
H          1.69780       -0.02810        1.33450
H          0.14150       -0.28720        2.12480
