20
gdb 7976	3.34739	1.59292	1.21495	2.0091	77.19	-0.2404	0.0168	0.2572	1062.7587	0.176749	-349.028156	-349.019466	-349.018522	-349.060957	32.857
C         -0.68500        1.32670        0.12030
C          0.12310        0.03820       -0.00620
C          1.21490        0.04790       -1.10500
C          2.31230       -0.82820       -0.53570
C          3.46790       -1.28040       -1.37140
C          2.09420       -1.09470        0.75650
C          0.87550       -0.38800        1.29310
O          1.23420        0.69660        2.15670
H         -0.04290        2.16900        0.39370
H         -1.18420        1.56900       -0.82390
H         -1.45250        1.23920        0.89560
H         -0.56150       -0.78600       -0.24200
H          0.83990       -0.32590       -2.06560
H          1.59460        1.06110       -1.30640
H          4.00900       -0.42320       -1.79240
H          4.17620       -1.88150       -0.79510
H          3.12620       -1.87830       -2.22580
H          2.75270       -1.67580        1.39400
H          0.24080       -1.02270        1.92060
H          1.98840        1.14120        1.75440
