16
gdb 227	4.50357	2.67369	2.67044	0.1987	52.67	-0.2619	0.0727	0.3346	609.3369	0.139933	-308.769557	-308.761514	-308.76057	-308.800675	28.879
C         -0.02290        1.55070        0.02000
C          0.03330        0.01860        0.02020
C          0.74850       -0.51350        1.26760
O         -1.28600       -0.53040       -0.07220
C          0.71570       -0.49600       -1.25330
O          2.05040       -0.01320       -1.27750
H          0.98250        1.97500       -0.03630
H         -0.60150        1.90530       -0.83820
H         -0.50210        1.92090        0.93390
H          0.26700       -0.14000        2.17890
H          0.71200       -1.60680        1.28390
H          1.79470       -0.19810        1.27820
H         -1.77570       -0.24260        0.70490
H          0.68050       -1.59550       -1.24720
H          0.14010       -0.14560       -2.12270
H          2.47240       -0.33640       -2.07790
