17
gdb 18621	3.12431	2.06688	1.7674	3.2072	69.29	-0.2506	0.0268	0.2774	830.3662	0.144123	-363.874741	-363.867674	-363.86673	-363.90586	27.225
C         -0.06680        1.54950        0.09780
C          0.06480        0.04730       -0.03250
C          0.68390       -0.65080       -1.21100
C          1.60640        0.16440       -2.09950
O          2.63920        0.69200       -1.24780
C          2.62620        0.08040       -0.01650
N          3.54850        0.18540        0.84030
C          1.37660       -0.70810        0.13650
H          0.79420        2.07980       -0.31520
H         -0.96360        1.90320       -0.42270
H         -0.15800        1.83560        1.15040
H         -0.77310       -0.49930        0.39340
H          0.20060       -1.51860       -1.64330
H          2.07040       -0.46420       -2.86870
H          1.11710        1.01150       -2.59160
H          4.31500        0.74960        0.46960
H          1.41460       -1.58680        0.76520
