16
gdb 3325	5.38134	2.11813	1.79228	2.4251	59.69	-0.24	0.0706	0.3106	731.717	0.137909	-325.718957	-325.712366	-325.711421	-325.749432	24.962
O          0.84650       -0.63680       -1.03530
C          0.15310       -0.00230        0.02420
C         -1.31030       -0.40140        0.02320
C         -2.35440        0.30030        0.93320
C         -3.09720        0.64830       -0.35610
C         -2.23620        1.42820       -1.25880
N         -2.07190       -0.04360       -1.24250
H          0.30300       -0.53080       -1.82530
H          0.62580       -0.33000        0.95750
H          0.26450        1.09320       -0.02310
H         -1.36750       -1.48910        0.11770
H         -2.88410       -0.39440        1.58630
H         -2.01730        1.15480        1.52890
H         -4.16220        0.52440       -0.52330
H         -2.66380        1.77770       -2.19330
H         -1.46310        2.07390       -0.84930
