17
gdb 11816	3.55558	1.72795	1.36368	2.4812	70.48	-0.2307	-0.022	0.2087	949.8577	0.141365	-363.846685	-363.838761	-363.837817	-363.879048	29.466
C         -0.62670        1.35680       -0.05750
C          0.08310        0.01260       -0.01690
N          1.35810       -0.06650       -0.81300
C          2.11680       -0.50360        0.37370
C          3.15670       -1.59210        0.47490
C          3.54460       -0.15740        0.70650
C          0.91030       -0.31910        1.24480
O          0.68840       -0.37660        2.42030
H          0.07300        2.16750        0.16320
H         -1.05750        1.53840       -1.04680
H         -1.43340        1.37830        0.68190
H         -0.61810       -0.80260       -0.24250
H          1.31380       -0.78360       -1.53030
H          3.09450       -2.26410        1.32450
H          3.46790       -2.05800       -0.45500
H          4.10640        0.34990       -0.07010
H          3.74930        0.16830        1.72090
