12
gdb 21510	5.3196	1.68629	1.28941	5.528	55.97	-0.2679	-0.0383	0.2296	852.0498	0.085969	-410.884933	-410.878307	-410.877363	-410.916156	23.905
N         -0.01660        1.37300       -0.01110
C          0.08060        0.01650       -0.11420
O          1.10350       -0.59810       -0.28480
N         -1.17420       -0.65750       -0.03860
C         -2.47220       -0.19380       -0.09540
N         -3.31930       -1.17550        0.00330
N         -2.58120       -2.34780        0.13300
C         -1.32280       -2.02020        0.09740
H          0.86500        1.85860        0.04140
H         -0.79780        1.80120        0.45700
H         -2.73090        0.84280       -0.24220
H         -0.47510       -2.68150        0.16540
