19
gdb 2293	7.4704	1.21054	1.13131	1.9721	67.37	-0.2413	0.0788	0.3201	1088.9062	0.17152	-310.902795	-310.89474	-310.893796	-310.935993	28.185
C         -0.07760        1.57400       -0.02860
C         -0.05260        0.04370       -0.05950
C          0.81570       -0.52230       -1.18970
C          0.82950       -2.04480       -1.23730
C         -0.43730       -2.76280       -1.76200
O          0.30110       -3.39260       -2.82790
C          1.51700       -2.71760       -2.44760
H          0.92940        1.98360        0.10850
H         -0.47440        1.98230       -0.96470
H         -0.70270        1.94710        0.78860
H          0.31440       -0.33810        0.90250
H         -1.07760       -0.33630       -0.16430
H          0.45970       -0.13510       -2.15500
H          1.84540       -0.15540       -1.07590
H          1.17350       -2.44760       -0.27980
H         -0.89800       -3.49890       -1.09200
H         -1.22190       -2.09500       -2.14550
H          1.86220       -2.02300       -3.22620
H          2.32520       -3.42380       -2.22080
