17
gdb 10907	3.15784	2.04605	1.43706	1.9279	69.37	-0.2367	-0.0193	0.2174	907.104	0.140846	-363.845891	-363.837796	-363.836852	-363.878117	29.766
C         -0.24510        1.56900       -0.03840
C          0.10240        0.09160       -0.02510
N          0.80060       -0.50840       -1.22820
C          2.14120        0.07220       -1.25040
C          1.90280       -1.07110       -0.31870
C          2.53170       -2.42480       -0.44560
C          1.19000       -0.52380        0.88730
O          1.29060       -0.70670        2.06720
H          0.62790        2.21040       -0.18320
H         -0.96430        1.78430       -0.83490
H         -0.70230        1.84300        0.91720
H         -0.80930       -0.49670        0.13790
H          2.70010       -0.16030       -2.15260
H          2.31310        1.07390       -0.86620
H          2.72240       -2.66640       -1.49470
H          3.48570       -2.45090        0.09150
H          1.88670       -3.20050       -0.02210
