14
gdb 12608	3.26436	2.28336	1.36672	1.0508	60.88	-0.2594	-0.0081	0.2512	845.6595	0.108443	-415.921111	-415.913818	-415.912873	-415.952898	25.914
C         -0.01660        1.45570       -0.00290
N          0.00380        0.00610       -0.01030
C          0.04300       -0.75100       -1.17680
N          0.06560       -0.25890       -2.33700
O          0.05230       -2.07450       -0.84080
C          0.01810       -2.21010        0.58210
C         -0.01460       -0.78320        1.11720
O         -0.04880       -0.41850        2.26650
H          0.87740        1.84860       -0.49300
H         -0.89540        1.82390       -0.53750
H         -0.04720        1.77230        1.04030
H          0.09300       -0.99450       -3.04000
H         -0.87380       -2.76630        0.88650
H          0.90810       -2.74240        0.93150
