24
gdb 5814	3.18477	1.53276	1.28432	0.	85.11	-0.2712	0.0731	0.3443	1112.9368	0.221287	-314.281534	-314.271787	-314.270842	-314.317095	37.68
C         -0.49840        1.50430       -0.41870
C          0.00370        0.07120       -0.24360
C         -1.14430       -0.92390       -0.41160
C          1.26750       -0.26740       -1.10020
C          2.11500       -0.48880        0.19530
C          2.61750       -1.92170        0.37040
C          3.26270        0.50670        0.36320
C          0.85110       -0.15040        1.05190
H          0.31270        2.23090       -0.30130
H         -0.93410        1.65080       -1.41440
H         -1.27010        1.74520        0.32230
H         -1.59670       -0.84000       -1.40710
H         -0.80130       -1.95680       -0.28910
H         -1.93260       -0.74560        0.32960
H          1.16190       -1.15750       -1.72810
H          1.61700        0.55380       -1.73350
H          3.38930       -2.16240       -0.37050
H          3.05310       -2.06800        1.36610
H          1.80670       -2.64860        0.25300
H          2.91940        1.53950        0.24060
H          3.71500        0.42300        1.35870
H          4.05110        0.32840       -0.37790
H          0.95650        0.73940        1.68010
H          0.50160       -0.97190        1.68480
