15
gdb 3291	4.68294	2.79532	2.28158	1.1168	56.46	-0.2455	0.0619	0.3075	632.793	0.125345	-345.610758	-345.604577	-345.603633	-345.640676	23.17
C          0.25880        1.51000       -0.02160
C          0.05150        0.01660        0.07960
O          0.86470       -0.75270       -0.86220
C          1.38240       -1.58990        0.18420
C          2.67730       -1.04600        0.80260
O          1.92170       -0.21630        1.72700
C          0.67030       -0.75570        1.26490
H          1.28330        1.77450        0.24920
H          0.05960        1.84730       -1.04320
H         -0.42770        2.03490        0.65150
H         -1.00690       -0.24700       -0.06030
H          1.27740       -2.65700       -0.01870
H          3.28200       -1.78470        1.34380
H          3.30810       -0.46230        0.12440
H          0.02920       -1.10350        2.07680
