20
gdb 16839	3.30194	1.91417	1.46855	1.325	74.61	-0.2467	0.0906	0.3374	943.8685	0.177693	-349.012278	-349.004486	-349.003542	-349.043892	30.607
C          0.06820        1.55270       -0.07250
C          0.06480        0.03650        0.04450
O          0.76390       -0.50970       -1.07640
C          1.21340       -1.82530       -0.74350
C          2.37540       -2.18710       -1.65520
C          1.51010       -1.76350        0.75070
C          2.27360       -0.55250        1.22540
C          0.76580       -0.55710        1.26120
H          1.08890        1.94250       -0.02570
H         -0.37770        1.86260       -1.02180
H         -0.51230        1.99800        0.74160
H         -0.97920       -0.32460        0.04040
H          0.39190       -2.54700       -0.90010
H          3.22200       -1.51500       -1.48890
H          2.70300       -3.21380       -1.46410
H          2.07450       -2.11200       -2.70400
H          1.56010       -2.69020        1.31050
H          2.79330       -0.63320        2.17350
H          2.77280        0.06760        0.48780
H          0.24570       -0.55970        2.21210
