12
gdb 1936	8.14965	1.67762	1.58511	2.4327	58.39	-0.2697	0.0067	0.2764	762.1666	0.089386	-323.336196	-323.329782	-323.328838	-323.366608	23.417
N          0.04500        1.10390        0.54650
C         -0.02690       -0.03080        0.02420
C         -1.14990       -1.00140       -0.26800
C         -0.02030       -1.87300       -0.88180
O          0.96110       -0.83910       -0.50850
C          0.24970       -3.15860       -0.27430
C          0.45490       -4.23220        0.22410
H          1.00610        1.44850        0.56520
H         -1.63210       -1.42380        0.61350
H         -1.90260       -0.64290       -0.97100
H         -0.05920       -1.95460       -1.97180
H          0.64350       -5.18050        0.66450
