17
gdb 18914	4.00915	2.32136	2.04919	1.8908	70.04	-0.2183	0.0819	0.3002	742.7656	0.144168	-326.675056	-326.668942	-326.667998	-326.704836	25.232
C         -0.05660        1.53180        0.02890
C          0.03500        0.03760        0.01040
C         -0.07560       -0.86400       -1.21670
C          0.96520       -1.96450       -1.18860
C          1.03800       -2.14530        0.31120
C          0.78450       -0.86270        1.01430
N         -0.28920       -1.90860        0.96600
C         -1.01090       -1.04480       -0.04650
H          0.90760        1.99620       -0.21100
H         -0.78640        1.88810       -0.70530
H         -0.36860        1.90160        1.01240
H         -0.45560       -0.44280       -2.13950
H          0.63090       -2.87240       -1.70220
H          1.92900       -1.65810       -1.60980
H          1.63220       -2.92860        0.76870
H          1.23230       -0.54910        1.95100
H         -2.09260       -1.02670       -0.07280
