13
gdb 2842	5.19913	1.72171	1.44658	4.2226	54.85	-0.2722	0.008	0.2802	809.1143	0.102319	-340.61	-340.602997	-340.602053	-340.641454	24.534
O          0.02640        1.36560       -0.34550
C          0.03690        0.10220        0.29170
C         -1.33650       -0.52900        0.24660
N         -1.72880       -1.05330       -1.06520
C         -1.55000       -1.99850        0.05650
C         -0.45090       -2.93010       -0.04400
N          0.41950       -3.68920       -0.09520
H         -0.18710        1.20500       -1.27190
H          0.77030       -0.57950       -0.16020
H          0.33520        0.27820        1.33000
H         -2.09890       -0.01900        0.83230
H         -2.72160       -0.92080       -1.23820
H         -2.43720       -2.42750        0.51430
