13
gdb 20413	4.88644	2.12599	1.52049	5.3767	59.56	-0.2365	-0.0297	0.2068	766.6952	0.098495	-394.735154	-394.729358	-394.728414	-394.765007	22.375
C          0.00820        1.43640       -0.07590
C          1.48740        1.93230        0.07500
C          2.23010        0.63790       -0.05180
N          3.42840        0.18230       -0.21770
O          3.28740       -1.19090       -0.21520
N          1.94400       -1.58260       -0.04140
C          1.32210       -0.44730        0.06000
N          0.03690       -0.00730        0.27820
H         -0.67640        1.97480        0.58330
H         -0.32820        1.58010       -1.11130
H          1.74760        2.67850       -0.67770
H          1.65220        2.37870        1.06130
H         -0.73470       -0.57830       -0.03320
