17
gdb 13169	2.93251	1.81281	1.40463	3.8021	67.66	-0.2607	0.0347	0.2954	941.9132	0.14216	-363.862635	-363.854442	-363.853498	-363.895719	29.059
C          0.10650        1.55870       -0.02820
C         -0.00320        0.02160       -0.01860
C          0.65770       -0.55710       -1.19360
N          1.17370       -1.02570       -2.11560
C          0.57880       -0.56000        1.28160
C          0.85300       -2.07680        1.37570
C          2.32120       -1.64980        1.57950
O          1.97590       -0.25070        1.43220
H          1.15130        1.85670        0.08140
H         -0.28460        1.97580       -0.95870
H         -0.46500        1.97390        0.80700
H         -1.06140       -0.26950       -0.06560
H         -0.00980       -0.15160        2.11560
H          0.38240       -2.58390        2.21840
H          0.66100       -2.63560        0.45880
H          2.74050       -1.85780        2.57040
H          3.02790       -1.97340        0.80910
