14
gdb 5406	5.45812	1.65514	1.28024	1.9388	66.16	-0.2554	-0.0266	0.2288	902.3564	0.109762	-378.778181	-378.771516	-378.770572	-378.809179	24.179
C         -0.02040        1.40860        0.01930
O          0.01400       -0.02130       -0.02100
C          0.61430       -0.59230       -1.07100
N          1.14860        0.16330       -2.02320
C          1.72860       -0.49070       -3.03640
N          1.83080       -1.80330       -3.19800
C          1.28060       -2.54290       -2.21820
C          0.65290       -1.99390       -1.11970
H          0.99050        1.82410        0.03140
H         -0.55350        1.81180       -0.84560
H         -0.54610        1.65770        0.94150
H          2.16510        0.13250       -3.81400
H          1.35290       -3.62200       -2.33060
H          0.21150       -2.59250       -0.33350
