14
gdb 1993	6.82639	1.6499	1.46856	2.3559	54.31	-0.265	0.0562	0.3212	828.8	0.113187	-361.740252	-361.733043	-361.732099	-361.772159	25.817
N         -0.19900        1.26620        0.07870
C          0.00610       -0.08480        0.12180
O          1.00740       -0.63000        0.51760
O         -1.10580       -0.72650       -0.33320
C         -1.06300       -2.13710       -0.24920
C         -1.81480       -2.79920        0.86490
C         -2.34980       -2.82790       -0.55550
H          0.62160        1.83990        0.17060
H         -0.96280        1.62130       -0.47110
H         -0.11950       -2.55600       -0.57580
H         -1.40210       -3.70500        1.29420
H         -2.32140       -2.14890        1.56860
H         -3.20410       -2.19750       -0.77420
H         -2.31410       -3.75530       -1.11580
