11
gdb 4331	4.23359	2.04838	1.38046	4.7643	56.5	-0.2563	-0.0654	0.1909	796.2975	0.07408	-430.760003	-430.753921	-430.752977	-430.790489	22.515
O          0.00370        1.28880        0.00790
C         -0.02960       -0.03910        0.00060
N         -1.17730       -0.62200        0.00390
C         -1.20950       -1.98580       -0.00290
N         -2.24670       -2.69700       -0.00120
O          0.08320       -2.66030       -0.01360
C          1.17640       -1.92050       -0.01570
N          1.22790       -0.63810       -0.00930
H          0.93550        1.54880        0.00430
H         -2.01340       -3.68790       -0.00770
H          2.08610       -2.51700       -0.02380
