15
gdb 3536	6.32652	3.06022	2.71931	0.0863	64.66	-0.2185	0.0084	0.227	559.9461	0.127653	-271.323381	-271.318586	-271.317642	-271.351462	20.546
C         -0.06850        1.56710        0.00980
C          1.45070        1.28490       -0.00540
C          1.24820        0.10780        1.02180
C          2.23200       -0.98770        0.64300
C          2.22000       -0.98050       -0.69220
C          1.22970        0.11900       -1.04140
C          0.05170        0.02650        0.00040
H         -0.47570        2.02400        0.91670
H         -0.49190        2.03370       -0.88470
H          2.27340        2.00590       -0.00890
H          1.04780        0.33550        2.06990
H          2.79370       -1.60910        1.32650
H          2.76930       -1.59440       -1.39230
H          1.01050        0.35790       -2.08320
H         -0.75220       -0.71550        0.00360
