15
gdb 6325	4.97752	1.118	0.95447	1.809	59.58	-0.2463	-0.052	0.1944	1140.3749	0.11732	-436.979509	-436.971033	-436.970089	-437.013236	30.087
N          0.25540        0.52630        0.81550
C         -0.10800        0.14260       -0.43830
O          0.33690        0.64110       -1.45340
C         -1.18210       -0.95370       -0.48360
C         -0.84000       -2.21590        0.33940
O         -0.76010       -1.95230        1.72020
C         -1.89460       -3.27670        0.09000
O         -2.56680       -3.71810        0.99060
H          1.01290        1.18470        0.89980
H         -0.01810       -0.03020        1.61170
H         -2.12900       -0.54470       -0.11120
H         -1.30930       -1.21270       -1.53740
H          0.12300       -2.61690       -0.01810
H         -1.47450       -2.47040        2.12750
H         -2.02500       -3.60930       -0.95840
