19
gdb 12100	3.34231	1.68455	1.46964	2.5138	71.37	-0.2198	0.0678	0.2876	948.1477	0.163615	-365.002918	-364.994177	-364.993233	-365.036029	32.554
C          0.36310        1.53380       -0.38840
N          0.07910        0.15100       -0.02360
C          1.18550       -0.79520       -0.04420
C          0.58260       -0.36700        1.25050
C          1.30550        0.48010        2.25500
O          0.38360        1.38390        2.82120
C          2.34470       -0.15540        3.14090
C          2.74810        0.89840        2.12370
H          1.38530        1.86540       -0.15540
H          0.20390        1.64700       -1.46560
H         -0.33470        2.18970        0.13860
H          0.96920       -1.78160       -0.44730
H          2.17420       -0.41480       -0.29500
H         -0.12540       -1.04290        1.72940
H          0.77000        1.76630        3.61510
H          2.35070        0.11980        4.19180
H          2.62650       -1.18570        2.95220
H          3.33480        0.58700        1.26780
H          3.00000        1.88740        2.49460
