16
gdb 6965	2.65642	2.27369	1.66614	0.9175	60.32	-0.2522	-0.0382	0.2141	828.8784	0.129171	-420.894488	-420.886661	-420.885717	-420.926363	29.233
C          0.18550        1.52550       -0.01800
C         -0.11080        0.01760       -0.03530
O         -1.49380       -0.24250       -0.00110
C          0.59770       -0.69330       -1.19740
O          1.94640       -0.86590       -0.74630
C          1.90550       -1.22740        0.62300
C          0.59290       -0.66200        1.15020
O          0.11450       -0.77360        2.24930
H          1.25450        1.72080       -0.14530
H         -0.36130        2.00240       -0.83640
H         -0.14490        1.96820        0.92640
H         -1.73470       -0.30940        0.93410
H          0.10720       -1.65870       -1.39130
H          0.63480       -0.11430       -2.12200
H          1.90290       -2.32040        0.76650
H          2.77840       -0.81780        1.14060
