19
gdb 13427	3.61043	1.35136	1.16732	1.6725	77.55	-0.2197	0.0504	0.2701	1099.7331	0.162767	-327.858949	-327.849607	-327.848663	-327.892963	33.967
C         -0.13210        1.49460        0.65210
C          0.07090        0.05110        0.24140
C          0.40090       -0.37520       -1.15680
C          0.57460        0.59080       -2.30970
N          1.38080       -0.53500       -0.07540
C          2.58110        0.30100       -0.04370
C          3.64020       -0.27270       -0.87180
C          4.51190       -0.72930       -1.56100
H          0.18790        1.65140        1.68840
H          0.40320        2.21060        0.02610
H         -1.19710        1.74480        0.59870
H         -0.54280       -0.63320        0.82800
H         -0.00050       -1.33580       -1.47980
H          0.86940        1.59540       -2.00110
H          1.33370        0.22060       -3.00630
H         -0.36840        0.68020       -2.85930
H          2.42490        1.34500       -0.35490
H          2.92110        0.34180        0.99910
H          5.28420       -1.13820       -2.16400
