14
gdb 3582	4.78673	3.0539	2.53804	3.5373	55.88	-0.2162	0.063	0.2792	575.8008	0.114735	-324.477059	-324.471696	-324.470752	-324.5058	22.169
O          0.10960        1.43090       -0.05580
C         -0.05880        0.06210        0.03490
C         -0.43430       -0.75710        1.24700
C         -1.62040       -0.18500        2.06400
N         -2.03500        1.12880        1.48450
C         -2.48180       -0.15830        0.87000
C         -1.34470       -0.72870       -0.01490
H         -0.61600        1.80320        0.47600
H          0.72030       -0.43860       -0.53850
H          0.17190       -1.57400        1.61980
H         -1.84900       -0.42460        3.09390
H         -2.80620        1.48220        2.04890
H         -3.53610       -0.37220        0.75550
H         -1.52440       -1.52110       -0.73160
