16
gdb 1280	8.17317	1.17164	1.04506	2.462	57.94	-0.264	0.0595	0.3235	1106.8366	0.135959	-362.967171	-362.95874	-362.957795	-363.000762	28.9
C         -0.05820        1.47720        0.05640
C          0.03470       -0.04860       -0.03040
C          0.75010       -0.50140       -1.29290
O          0.78720       -1.93770       -1.28390
C          1.40050       -2.50420       -2.35110
N          1.42380       -3.86480       -2.20510
O          1.88200       -1.89310       -3.27610
H          0.93580        1.93750        0.06430
H         -0.60860        1.89260       -0.79480
H         -0.57490        1.78640        0.96920
H          0.56750       -0.44610        0.84120
H         -0.96830       -0.49070       -0.01250
H          0.23250       -0.15880       -2.19570
H          1.77390       -0.11430       -1.33800
H          0.80550       -4.28770       -1.53390
H          1.65270       -4.39170       -3.03030
