14
gdb 707	7.4064	3.88262	3.77802	0.339	55.33	-0.2073	0.0868	0.2941	449.4946	0.121076	-233.219124	-233.214384	-233.21344	-233.2467	19.575
C         -0.00120        1.49550       -0.10210
C          1.31420        0.77240        0.01230
C          0.00950       -0.00480        0.02080
C          0.44590       -0.75150       -1.27310
C          0.78330        0.15330       -2.42790
C          1.75060        0.02570       -1.28160
H         -0.30020        2.00740        0.80820
H         -0.31490        2.01240       -1.00220
H          1.99480        0.94920        0.83510
H         -0.46220       -0.51440        0.85100
H          0.29840       -1.81570       -1.40390
H          1.09350       -0.37720       -3.32380
H          0.23830        1.06580       -2.64240
H          2.75540       -0.35210       -1.41980
