19
gdb 12669	3.25499	1.81562	1.32727	3.7135	71.07	-0.2339	0.0354	0.2693	968.1384	0.166853	-365.121035	-365.112822	-365.111878	-365.1534	30.933
C         -0.79810        1.23460       -0.05860
C          0.08150       -0.01270       -0.03230
C          1.24850        0.02390       -1.04830
N          2.19470       -0.91170       -0.47070
C          2.02980       -1.13800        0.87000
O          2.76240       -1.79750        1.57550
C          0.77800       -0.36000        1.30900
C          1.21620        0.83260        2.17390
H         -0.22950        2.13850        0.18040
H         -1.24120        1.37450       -1.05070
H         -1.61940        1.15520        0.66070
H         -0.53850       -0.87690       -0.29960
H          0.93120       -0.28860       -2.04880
H          1.67240        1.03620       -1.13540
H          3.03940       -1.20980       -0.93250
H          0.15590       -1.02040        1.91960
H          1.83740        1.53840        1.61150
H          0.35310        1.37930        2.56370
H          1.80700        0.46970        3.01890
