14
gdb 4665	7.09407	1.23147	1.05333	5.1464	68.35	-0.2053	-0.0259	0.1795	1044.0199	0.108761	-378.768449	-378.761063	-378.760119	-378.800129	26.96
N          0.10660        1.40650        0.13450
C         -0.02750        0.00810        0.04370
C         -1.10480       -0.84140        0.01710
C         -0.59380       -2.18140       -0.00620
C         -1.36070       -3.41850       -0.04150
O         -0.88700       -4.53560       -0.08800
C          0.78810       -2.09280       -0.00150
N          1.11440       -0.77210        0.03740
H          0.33830        1.83490       -0.75740
H         -0.75210        1.82850        0.46550
H         -2.14430       -0.55000       -0.00100
H         -2.46510       -3.27080       -0.02160
H          1.53180       -2.87170       -0.02110
H          2.04380       -0.39390        0.11910
