14
gdb 8028	3.47625	2.00758	1.55816	4.0112	57.72	-0.2391	-0.0391	0.2001	807.8638	0.105516	-419.642521	-419.635389	-419.634445	-419.673957	26.482
O          0.12790        1.44950       -0.22540
C          0.02580        0.08090       -0.00330
C          0.32640       -0.90610       -1.14790
O         -0.91530       -1.61400       -0.90490
C         -1.36950       -0.62430        0.05050
C         -1.02660       -1.12690        1.46930
O         -1.60510       -1.76840        2.29320
C          0.37140       -0.46530        1.41560
H          1.02950        1.73000       -0.03460
H          0.32300       -0.42590       -2.13390
H          1.20270       -1.55680       -1.04910
H         -2.33900       -0.18370       -0.19110
H          1.23540       -1.12700        1.51940
H          0.44120        0.34110        2.15380
