21
gdb 13628	3.8186	1.20439	1.04138	1.3295	75.54	-0.2247	0.0706	0.2953	1220.0793	0.186845	-366.230036	-366.220364	-366.219419	-366.264393	35.104
C          3.83170        0.68170       -0.35930
C          3.00090       -0.60280       -0.32620
C          2.34760       -0.86160        1.03900
O          1.52490        0.23450        1.44690
C          1.55770       -2.15580        1.03120
C          2.16690       -3.44640        1.46840
N          1.10250       -2.82730        2.24530
C          1.44020       -2.26990        3.54890
H          4.67820        0.62090        0.33360
H          4.23230        0.86870       -1.36000
H          3.22290        1.53960       -0.06300
H          2.20900       -0.55590       -1.08810
H          3.62240       -1.46840       -0.58620
H          3.13360       -0.90710        1.80050
H          0.76520        0.26400        0.85400
H          0.81720       -2.19260        0.22790
H          1.92300       -4.37910        0.96590
H          3.18080       -3.40030        1.86780
H          2.48960       -1.95330        3.65320
H          0.80460       -1.40250        3.74480
H          1.24380       -3.02990        4.31170
