15
gdb 4676	5.95977	1.32688	1.09265	2.0025	81.59	-0.1934	0.0027	0.196	1053.0685	0.11893	-325.544761	-325.537005	-325.536061	-325.576717	28.927
C          0.00150        1.48190        0.10840
C         -0.00180       -0.00280       -0.04510
C         -0.04650       -0.79640       -1.17650
C         -0.02490       -2.14990       -0.76460
C          0.03280       -2.16550        0.62010
N          0.04560       -0.84400        1.03360
C          0.07390       -3.23200        1.53710
C          0.10980       -4.13450        2.33650
H          0.91230        1.84440        0.60100
H         -0.05430        1.95670       -0.87350
H         -0.85230        1.83780        0.69820
H         -0.09000       -0.43060       -2.19130
H         -0.04850       -3.02630       -1.39280
H          0.08470       -0.55890        1.99750
H          0.14090       -4.93770        3.03000
