16
gdb 7486	3.50096	1.52382	1.32434	2.7282	60.85	-0.2499	-0.0293	0.2206	951.1049	0.128207	-420.85495	-420.846709	-420.845764	-420.888375	29.118
O          0.15410        1.45980       -0.14000
C          0.02500        0.06690        0.00430
C          0.94570       -0.57090       -1.04160
C          2.38430       -0.15770       -0.79100
O          3.12960       -0.76740       -0.06540
C          0.15810       -0.55130        1.42170
O         -1.05610       -1.30590        1.22880
C         -1.39720       -0.54730        0.05450
H         -0.37070        1.89090        0.54320
H          0.87050       -1.65880       -0.96520
H          0.62550       -0.24580       -2.03730
H          2.71270        0.77310       -1.29910
H          1.02630       -1.18580        1.61960
H          0.05840        0.19620        2.22370
H         -2.17530        0.20600        0.25350
H         -1.71540       -1.18290       -0.77910
