14
gdb 4980	3.38066	2.35115	1.3885	1.825	68.38	-0.1993	-0.006	0.1932	831.6933	0.110253	-378.793199	-378.786618	-378.785674	-378.823518	26.156
N         -0.04630        1.43670       -0.11920
C         -0.04870        0.04690       -0.04650
C         -1.20020       -0.72790        0.02520
C         -1.10220       -2.12200        0.03120
C          0.15220       -2.70270       -0.03080
N          1.27960       -1.97340       -0.09400
C          1.17140       -0.66300       -0.10130
O          2.30930        0.08040       -0.15770
H          0.83190        1.85710        0.14840
H         -0.83830        1.88810        0.31430
H         -2.17020       -0.24150        0.07270
H         -1.99260       -2.73730        0.08590
H          0.27810       -3.78090       -0.02770
H          3.03790       -0.55480       -0.17320
