13
gdb 5004	3.451	2.37465	1.40812	3.7982	65.96	-0.2019	-0.0387	0.1632	810.1664	0.097349	-398.661372	-398.654875	-398.65393	-398.691758	25.304
N          0.00470        1.39440        0.12760
C         -0.07680        0.02450        0.03950
C         -1.21800       -0.72310        0.01600
C         -1.13190       -2.14900       -0.01220
C          0.07780       -2.73590       -0.01940
O          1.22680       -2.01130       -0.01040
C          1.23340       -0.64050        0.00840
O          2.29000       -0.05190       -0.01030
H          0.91710        1.76130       -0.10390
H         -0.77970        1.93300       -0.20240
H         -2.19020       -0.24050        0.02600
H         -2.02440       -2.76080       -0.02460
H          0.27610       -3.79840       -0.03540
