13
gdb 5099	3.37808	2.02317	1.27068	1.8107	55.83	-0.1741	0.0445	0.2185	868.4932	0.094885	-435.748028	-435.740073	-435.739129	-435.77971	29.418
O          0.07140        1.36680       -0.02510
C          0.05740        0.00380       -0.04140
C         -0.01750       -0.80460       -1.14520
N          0.01650       -2.12290       -0.68280
C          0.09650       -2.13450        0.67290
O          0.11640       -3.31170        1.34470
C          0.14240       -0.83240        1.11370
O          0.17510       -0.40970        2.43220
H         -0.06390        1.63450        0.89130
H         -0.07820       -0.57550       -2.19380
H         -0.07810       -2.94630       -1.24900
H          0.02210       -3.10040        2.28090
H          1.09130       -0.23770        2.67940
