11
gdb 23635	4.14901	1.86662	1.28742	2.8495	55.34	-0.2516	-0.0532	0.1983	822.6585	0.074157	-438.757706	-438.751875	-438.750931	-438.787861	21.851
F          0.04670        0.05940        0.00250
C         -0.01830        1.37970        0.01060
C         -1.23150        1.99420        0.03060
C         -1.29030        3.43560        0.03940
O         -2.26520        4.15760        0.05660
N          0.01780        4.00690        0.02460
C          1.15490        3.28440        0.00510
N          1.19340        1.98590       -0.00260
H         -2.15560        1.43380        0.04010
H          0.04730        5.01810        0.02970
H          2.08550        3.84550       -0.00460
