15
gdb 23905	4.67338	0.8579	0.8438	3.1045	50.74	-0.2747	0.0699	0.3446	1315.2539	0.114243	-531.311262	-531.302619	-531.301675	-531.345626	29.744
O         -0.04280        1.45370        0.01030
C          0.04250        0.03890        0.00180
C         -1.37970       -0.50580        0.01250
C         -1.41410       -2.03570        0.00450
C         -2.82410       -2.58700        0.01500
F         -3.52550       -2.18350       -1.05760
F         -2.82080       -3.93000        0.00770
F         -3.50490       -2.19510        1.10500
H          0.84980        1.81150        0.00380
H          0.57500       -0.32570       -0.89240
H          0.59200       -0.33530        0.88170
H         -1.89710       -0.12650        0.89940
H         -1.91400       -0.11700       -0.86010
H         -0.91900       -2.43940       -0.88490
H         -0.90220       -2.44890        0.88000
