20
gdb 13902	2.87648	1.53467	1.42663	2.4926	76.75	-0.2366	-0.0091	0.2276	1039.7871	0.175112	-349.024894	-349.015548	-349.014604	-349.058674	34.046
C         -0.24820        1.25290       -1.38180
C         -0.03300       -0.05180       -0.64660
C          1.31550       -0.61510       -0.33410
C          2.61580        0.05650       -0.71800
C          0.42990       -0.11260        0.82000
C          0.75990        1.11040        1.60120
C          0.39360        1.05250        3.07640
O          1.28410        2.10220        1.12870
H          0.45170        2.02400       -1.06160
H         -0.13590        1.09980       -2.46100
H         -1.26170        1.62900       -1.20560
H         -0.79500       -0.79700       -0.86370
H          1.36930       -1.70120       -0.36210
H          2.57970        1.13500       -0.56830
H          3.44190       -0.33610       -0.11550
H          2.84830       -0.14680       -1.76940
H         -0.03400       -0.89290        1.41510
H          0.90590        0.21470        3.56350
H          0.67150        1.98760        3.56360
H         -0.68210        0.87830        3.19520
