24
gdb 6409	3.8494	0.89104	0.86909	1.2607	81.88	-0.2625	0.0775	0.34	1483.2479	0.221014	-351.415106	-351.404271	-351.403327	-351.450975	39.16
C          0.88500       -0.31690       -1.08820
C         -0.02030        0.06560        0.09110
C         -0.15900        1.59140        0.18940
C         -1.41340       -0.58660        0.00070
C         -1.45840       -2.12520        0.01960
C         -0.87850       -2.72810        1.30610
C         -2.89870       -2.59700       -0.19310
O         -2.89710       -4.01120       -0.33650
H          1.85800        0.17950       -1.00960
H          1.06860       -1.39420       -1.13750
H          0.43440       -0.01210       -2.04090
H          0.46230       -0.28080        1.01460
H         -0.63440        2.00150       -0.71000
H         -0.77110        1.88250        1.04980
H          0.81900        2.07270        0.29490
H         -2.02580       -0.21090        0.83330
H         -1.90000       -0.22790       -0.91830
H         -0.88480       -2.51150       -0.83290
H         -1.02670       -3.81020        1.31480
H          0.19280       -2.53040        1.40360
H         -1.37630       -2.30990        2.19020
H         -3.51810       -2.28670        0.66550
H         -3.31620       -2.11290       -1.09070
H         -3.80910       -4.30910       -0.39420
