15
gdb 18802	3.2988	3.11186	2.39743	1.4918	64.02	-0.2306	-0.0065	0.2241	645.2604	0.12235	-362.604463	-362.599306	-362.598362	-362.633313	22.278
N         -0.03010        1.48940        0.03930
C          1.47410        1.44130       -0.00970
C          1.98160        1.24140        1.39140
C          1.52490        0.13060        1.98760
C          0.81300       -0.78610        1.04220
O          1.78430       -1.09760       -0.02240
C          1.29910        0.01240       -0.74690
C         -0.05880        0.03980       -0.04370
H         -0.39540        1.89330        0.90150
H          1.93440        2.26230       -0.56080
H          2.61320        1.97910        1.87490
H          1.70910       -0.13650        3.02170
H          0.38850       -1.69400        1.47110
H          1.50360       -0.02040       -1.81690
H         -0.98140       -0.44000       -0.37400
