17
gdb 13592	4.36448	1.196	1.10136	4.0655	66.64	-0.2588	-0.0314	0.2274	1118.3169	0.140815	-400.986182	-400.977665	-400.976721	-401.019562	30.698
C          0.11060        1.57110       -0.54040
C         -0.04170        0.14280       -0.08210
N          1.16490       -0.66530        0.01690
C          0.43320       -0.35840        1.26200
C          1.09700        0.53140        2.25690
O          1.94680        1.35470        1.98400
C          0.63990        0.39350        3.70450
O          1.27770        1.31970        4.52700
H          1.02290        2.00940       -0.13520
H          0.16170        1.60400       -1.63380
H         -0.74810        2.17280       -0.22450
H         -0.94540       -0.35670       -0.43250
H          0.98640       -1.63040       -0.24810
H         -0.16870       -1.14840        1.70790
H         -0.45650        0.51350        3.73700
H          0.84280       -0.64390        4.02550
H          1.88960        1.79290        3.93860
