19
gdb 11611	5.42907	0.82124	0.75626	1.8627	83.09	-0.2282	0.0407	0.269	1550.1738	0.164625	-327.879082	-327.869741	-327.868796	-327.915461	32.928
C          0.00640        1.53980        0.03360
C         -0.03070       -0.00050       -0.03020
C         -1.47920       -0.52790        0.00360
C          0.68590       -0.49310       -1.20740
C          1.26810       -0.88630       -2.18840
C          1.93960       -1.36940       -3.36260
C          3.27680       -2.02560       -3.24460
N          2.09850       -2.82990       -3.58340
H          1.03510        1.90910        0.04090
H         -0.50330        1.97300       -0.83260
H         -0.49610        1.89310        0.93970
H          0.48620       -0.38360        0.86110
H         -2.04150       -0.16350       -0.86160
H         -1.50120       -1.62070       -0.01500
H         -1.98620       -0.18660        0.91190
H          1.72300       -0.82710       -4.27970
H          3.99790       -1.90680       -4.04840
H          3.70410       -2.10750       -2.24970
H          1.77070       -3.31790       -2.75300
