12
gdb 2809	3.89424	2.41376	1.64903	4.0519	60.93	-0.2658	0.0098	0.2756	725.5233	0.089468	-286.206129	-286.199427	-286.198483	-286.236765	24.275
C         -0.09200       -1.21100       -0.00680
C         -0.04560       -0.01040        0.01660
C          0.00140        1.42040        0.03680
C          0.48660        2.15810        1.26200
C          1.34940        2.16110        0.01890
C          2.58010        1.42330       -0.00480
N          3.58060        0.84380       -0.03000
H         -0.12130       -2.27240       -0.02700
H         -0.77200        1.91590       -0.54260
H         -0.00400        3.08730        1.52600
H          0.82590        1.55660        2.09570
H          1.37130        3.07480       -0.56510
