16
gdb 18441	2.98027	2.14763	1.63188	1.7584	69.9	-0.2525	0.0363	0.2889	831.3719	0.130263	-346.537722	-346.530464	-346.52952	-346.568826	28.649
O          0.12150        1.38640       -0.23980
C          0.00180        0.01340       -0.00040
C          0.24630       -0.57830        1.43870
C         -1.10820       -1.28320        1.33810
C         -2.22020       -0.26410        1.18000
C         -2.19640        1.03790        1.79160
C         -2.18040        2.12500        2.31090
C         -1.38220       -0.65410       -0.02530
H         -0.47620        1.84260        0.36570
H          0.66440       -0.47520       -0.71950
H          1.09960       -1.25810        1.47580
H          0.33690        0.15560        2.24410
H         -1.33210       -2.28750        1.67510
H         -3.20970       -0.71410        1.15400
H         -2.17850        3.07950        2.77680
H         -1.86560       -1.07690       -0.89860
