16
gdb 11271	4.25279	1.38389	1.16431	4.5189	69.58	-0.2477	-0.0537	0.1941	1018.6682	0.130203	-383.764796	-383.757175	-383.756231	-383.797019	28.025
O         -0.52010        1.29490        0.54590
C          0.00250        0.08090        0.02160
C          0.77690       -0.72110        1.10770
C         -0.25220       -1.68050        1.63690
C         -1.33680       -1.73220        0.84990
C         -1.21240       -0.80400       -0.33520
C         -2.48930       -2.60270        1.08720
O         -3.45090       -2.67640        0.35370
H          0.22050        1.86230        0.78250
H          0.63270        0.28400       -0.85430
H          1.62860       -1.26800        0.67840
H          1.18860       -0.05960        1.87970
H         -0.11290       -2.27170        2.53650
H         -2.10190       -0.18850       -0.49160
H         -1.04730       -1.37120       -1.25860
H         -2.42420       -3.21480        2.01510
