13
gdb 20418	6.40147	1.54658	1.31003	4.9276	62.25	-0.2393	-0.0261	0.2133	878.2923	0.095944	-394.723692	-394.717178	-394.716233	-394.754917	23.567
C         -0.12180        1.27810       -0.34330
C          1.28320        1.04420        0.10440
N          0.30250       -0.03710        0.12610
C         -0.16500       -0.54740        1.31220
C         -1.43390       -0.75270        1.79270
N         -1.29460       -1.39150        2.99300
N         -0.09310       -1.58670        3.28490
O          0.70920       -1.03380        2.18210
H         -0.76650        1.85790        0.31200
H         -0.35670        1.33510       -1.40120
H          2.07650        0.92670       -0.62610
H          1.58650        1.46330        1.05940
H         -2.39130       -0.50700        1.36930
