22
gdb 10756	3.35227	1.36185	1.26545	1.3477	77.59	-0.2629	0.0741	0.337	1098.8445	0.198478	-350.191069	-350.181388	-350.180444	-350.224931	36.447
C          0.11940        1.55970        0.27870
C          0.07510        0.03240        0.10090
C          0.65310       -0.64220        1.36060
C         -1.38720       -0.41050       -0.09360
O         -2.14550       -0.05220        1.05450
C          0.85610       -0.46400       -1.11890
C          0.85000        0.21880       -2.46520
C          2.11190        0.18980       -1.63710
H          1.13000        1.90670        0.51270
H         -0.22530        2.08780       -0.61640
H         -0.53680        1.84970        1.10220
H          0.07750       -0.36660        2.24740
H          0.62610       -1.73410        1.26870
H          1.69570       -0.34540        1.51230
H         -1.79110        0.06880       -0.99890
H         -1.41560       -1.50040       -0.25580
H         -3.05760       -0.31660        0.90710
H          0.86790       -1.55120       -1.17440
H          0.79650       -0.40170       -3.35330
H          0.34060        1.17080       -2.56470
H          2.43330        1.12250       -1.18790
H          2.92800       -0.44960       -1.95560
