15
gdb 6754	7.50477	0.67075	0.62047	2.5183	68.54	-0.2518	-0.0168	0.2351	1693.9304	0.116679	-399.79763	-399.787774	-399.786829	-399.834912	31.994
N         -0.05390        1.34110        0.02990
C          0.05530       -0.01980        0.00610
O          1.12180       -0.60400       -0.01420
C         -1.22520       -0.71170        0.01420
C         -2.25730       -1.33500        0.01870
C         -3.48080       -2.12140        0.02380
C         -3.21280       -3.63150        0.01330
O         -4.47880       -4.26630        0.01930
H          0.79020        1.88840       -0.00630
H         -0.94750        1.79940        0.00500
H         -4.08310       -1.87840        0.90780
H         -4.09650       -1.86880       -0.84820
H         -2.62660       -3.89180       -0.88000
H         -2.61340       -3.90170        0.89490
H         -4.34040       -5.21770        0.01350
