19
gdb 17819	4.40466	1.33467	1.13623	2.8131	72.03	-0.2311	0.0768	0.3079	1085.9663	0.16516	-365.003936	-364.995729	-364.994785	-365.037365	29.74
C         -0.04470        1.52670       -0.38670
C         -0.01890        0.05380       -0.03820
C          1.23920       -0.74100       -0.10650
N          0.59660       -0.48330        1.18310
C          1.27290        0.40330        2.10450
C          0.41280        0.92310        3.27630
O          1.31230        0.35220        4.24800
C          2.07450       -0.30900        3.21650
H          0.91820        2.01590       -0.22250
H         -0.29900        1.64940       -1.44480
H         -0.80320        2.06000        0.19730
H         -0.94540       -0.46440       -0.28220
H          1.23770       -1.77450       -0.44260
H          2.15290       -0.19240       -0.33560
H          1.85360        1.19720        1.61540
H          0.32590        2.01060        3.38500
H         -0.58450        0.46710        3.31470
H          1.92750       -1.39600        3.22290
H          3.14400       -0.07830        3.28490
