18
gdb 2341	5.38372	1.40548	1.23858	0.8187	64.67	-0.2226	0.0765	0.2991	989.5541	0.159134	-326.934805	-326.926564	-326.92562	-326.967473	29.392
C         -0.25550        1.42430        0.06280
N          0.03220       -0.00100        0.10250
C          1.39300       -0.42130       -0.20740
C          0.85740       -0.56470        1.17700
C          1.42490        0.23740        2.32930
C          0.43390        0.40330        3.47760
O          1.10610        1.07110        4.53410
H          0.58040        2.07700        0.36000
H         -0.53540        1.69230       -0.96130
H         -1.10980        1.64350        0.71200
H          1.49570       -1.28200       -0.86370
H          2.14170        0.35640       -0.36210
H          0.51250       -1.55620        1.47330
H          2.31020       -0.28110        2.71770
H          1.76520        1.22470        2.00400
H         -0.44420        0.97470        3.13740
H          0.07160       -0.58810        3.79620
H          0.48830        1.18040        5.26270
