14
gdb 18547	4.30313	2.0653	1.56992	2.8759	62.52	-0.249	-0.016	0.233	781.5201	0.10953	-378.742339	-378.736184	-378.73524	-378.772889	23.14
O         -0.00010       -0.04180        0.07110
C         -0.07030        1.14460       -0.00960
C         -1.18440        2.20520       -0.09620
C         -0.04440        3.25920       -0.05470
C          0.28970        4.06770        1.22410
N          1.49130        3.43200        1.80710
C          1.77330        2.40170        1.11950
N          0.95740        2.15080       -0.01310
H         -1.80230        2.17050       -0.99600
H         -1.83110        2.19300        0.78540
H          0.04260        3.85680       -0.96400
H          0.50420        5.11510        0.99540
H         -0.51130        4.05940        1.97350
H          2.57740        1.71390        1.35660
