10
gdb 3880	7.39742	2.3304	1.77513	3.6857	44.69	-0.2229	0.031	0.2539	632.6095	0.068348	-392.672883	-392.666896	-392.665952	-392.702597	21.444
N          0.05800        1.33860        0.15500
C         -0.03790       -0.02110        0.06180
N         -1.11470       -0.73150        0.05390
N         -0.60460       -2.03140        0.05230
C          0.75020       -2.08610        0.02470
O          1.52950       -2.99310       -0.00700
O          1.12140       -0.71960        0.04230
H          0.86610        1.73610       -0.30140
H         -0.80590        1.81930       -0.05020
H         -1.22440       -2.82040        0.02330
