15
gdb 15129	9.43174	0.72561	0.69539	3.9549	73.82	-0.2533	-0.0605	0.1928	1546.7642	0.116979	-362.598663	-362.590239	-362.589295	-362.633153	28.309
O         -0.08560        0.03270        0.14570
C          0.03450        1.23610        0.17860
C          1.27560        1.93930       -0.01330
C          2.29680        2.56380       -0.17310
C          3.54490        3.29300       -0.35760
N          3.35440        4.73980       -0.26860
C          3.41780        5.30870        1.07490
C          4.53930        5.50300        0.11530
H         -0.83430        1.89980        0.36550
H          4.28240        2.91400        0.37540
H          3.95000        3.06120       -1.35120
H          2.71570        6.11160        1.27670
H          3.58850        4.63090        1.90970
H          5.46090        4.95640        0.31000
H          4.67250        6.44960       -0.39950
