17
gdb 2930	5.59371	1.97777	1.66022	1.0679	65.6	-0.2371	0.0311	0.2682	794.7383	0.148784	-309.719592	-309.712523	-309.711579	-309.750941	25.876
C         -0.04880        1.37770       -0.09950
O         -0.02300        0.00020        0.18530
C         -1.28520       -0.64020        0.06370
C         -1.64930       -0.94370       -1.41970
C         -1.34690       -2.41410       -1.57040
C         -1.08740       -2.99640       -0.40200
C         -1.16400       -2.02380        0.74740
H          0.96020        1.76220        0.06980
H         -0.33170        1.59240       -1.14130
H         -0.74930        1.91520        0.56030
H         -2.04950       -0.01220        0.54430
H         -2.70620       -0.72970       -1.62980
H         -1.06420       -0.31720       -2.10280
H         -1.36120       -2.91560       -2.53190
H         -0.86100       -4.04740       -0.26120
H         -0.27710       -2.03530        1.38980
H         -2.02780       -2.23220        1.39240
