17
gdb 2180	3.60712	2.7382	1.79845	0.7072	59.22	-0.252	0.0647	0.3167	732.0326	0.149853	-346.865438	-346.858287	-346.857343	-346.896859	26.8
O          0.06270        1.34910       -0.20850
C          0.00680       -0.05190       -0.02950
C          0.71730       -0.58960        1.22260
C          0.11540       -1.99200        1.37920
C         -1.38350       -1.78510        1.06110
C         -1.45740       -0.58510        0.09380
O         -2.29800        0.41350        0.67250
H         -0.38770        1.72890        0.55600
H          0.47140       -0.48110       -0.92450
H          1.80620       -0.57560        1.13220
H          0.44520        0.03540        2.08400
H          0.57080       -2.67430        0.65120
H          0.27850       -2.42600        2.36900
H         -1.85920       -2.68170        0.65670
H         -1.93250       -1.50550        1.96550
H         -1.85210       -0.87070       -0.88960
H         -2.40880        1.10070        0.00560
