13
gdb 705	10.64531	2.29727	2.08154	2.6444	50.31	-0.2493	0.0746	0.3238	605.2204	0.108598	-286.432042	-286.426314	-286.42537	-286.461426	20.405
C         -0.28130        1.28180       -0.24570
N          1.09730        1.29070        0.26420
C          0.38120        0.01010        0.14620
C          0.05440       -0.67910        1.42660
C         -0.55830       -2.01280        1.44940
O          0.82860       -1.84070        1.74240
H         -1.01300        1.73920        0.41510
H         -0.46030        1.45470       -1.30360
H          1.75890        1.39540       -0.49990
H          0.67170       -0.66680       -0.65530
H         -0.11780       -0.00800        2.26870
H         -1.18590       -2.30610        2.28980
H         -0.77820       -2.52000        0.51010
