22
gdb 9838	3.16949	1.37958	1.16846	1.2793	77.71	-0.2596	0.0782	0.3378	1136.6374	0.19874	-350.191268	-350.181637	-350.180693	-350.225183	36.206
C          0.31360        1.30570        0.53810
C         -0.04240       -0.08800        0.00450
C         -1.55600       -0.18960       -0.22870
O         -2.21080       -0.04330        1.02570
C          0.72420       -0.53130       -1.25110
C          0.76280       -2.03860       -1.45180
C          0.66290        0.31850       -2.50250
C          1.94950        0.21990       -1.72030
H          1.34660        1.34950        0.89300
H          0.18400        2.08060       -0.22700
H         -0.34560        1.55160        1.37340
H          0.19110       -0.81120        0.79830
H         -1.86960        0.59690       -0.93380
H         -1.80770       -1.15760       -0.68570
H         -3.15920       -0.03150        0.86990
H         -0.24040       -2.47240       -1.52540
H          1.29860       -2.29970       -2.36980
H          1.27460       -2.53090       -0.61640
H          0.59620       -0.18480       -3.46150
H          0.12690        1.26120       -2.46390
H          2.27600        1.09760       -1.17620
H          2.76200       -0.36360       -2.14090
