13
gdb 10017	3.23321	1.38422	1.04724	5.6314	62.83	-0.2478	-0.0386	0.2093	1067.6984	0.093611	-394.795302	-394.786676	-394.785732	-394.829218	29.031
N         -0.28970        1.37760       -0.19740
C         -0.52700        0.05210       -0.37860
N         -0.40800       -0.79120        0.57300
C         -0.75320       -2.18170        0.35550
C         -1.79930       -2.58860        1.41760
O         -2.70110       -3.35450        1.23560
C         -1.19160       -2.54970       -1.00000
N         -1.50610       -2.75930       -2.09190
H         -0.15630        1.96700       -1.00010
H          0.14120        1.66730        0.66640
H         -0.84950       -0.20600       -1.39310
H          0.13340       -2.79600        0.58900
H         -1.61030       -2.08350        2.38680
