16
gdb 5535	3.16041	1.93237	1.2743	1.0467	68.52	-0.1865	0.0294	0.2159	950.723	0.131874	-379.932687	-379.924818	-379.923874	-379.964915	29.179
C         -0.45540        1.19830       -0.13850
N          0.38860        0.03620        0.16000
C          0.81420       -0.71570       -0.92890
C          0.64160       -2.04110       -1.20800
N          0.02630       -2.99010       -0.38160
C          1.29440       -2.28210       -2.46420
C          1.81390       -1.08750       -2.85170
O          1.55310       -0.12130       -1.94410
H          0.04080        1.95770       -0.75900
H         -1.35180        0.86090       -0.66700
H         -0.76650        1.66480        0.80110
H          1.15210        0.29810        0.77590
H         -0.49250       -2.53300        0.35980
H         -0.58430       -3.61820       -0.88920
H          1.36870       -3.22060       -2.99160
H          2.37270       -0.78140       -3.72150
