18
gdb 17943	3.19032	2.25204	2.06667	1.7372	70.51	-0.2219	0.095	0.3169	784.4065	0.155544	-347.778847	-347.77218	-347.771236	-347.809248	26.774
C         -0.00210        1.53380       -0.03160
C          0.00100        0.03620        0.01130
C          0.47300       -1.04110       -0.98290
C          1.23310       -1.77510        0.11990
C          0.47960       -0.89630        1.17050
C         -0.81040       -1.59020        1.60120
O         -1.51180       -1.82610        0.37190
C         -0.98410       -0.91450       -0.57010
H          1.00300        1.94550        0.11760
H         -0.36730        1.89740       -0.99790
H         -0.65230        1.95460        0.74510
H          0.78560       -0.92360       -2.01550
H          1.09510       -2.85940        0.19650
H          2.30180       -1.54840        0.09510
H          1.06750       -0.46630        1.98140
H         -0.64440       -2.55580        2.09080
H         -1.41190       -0.95360        2.26950
H         -1.70700       -0.59560       -1.31240
