18
gdb 8269	6.38886	0.82183	0.81625	1.5384	77.81	-0.2391	0.0561	0.2952	1452.7823	0.152496	-347.770332	-347.761302	-347.760358	-347.80598	31.946
C          0.46600        1.65390       -0.58270
C          0.26560        0.24120       -0.29230
C          0.10530       -0.92990       -0.05730
C         -0.10920       -2.32970        0.24570
C         -0.05390       -2.80050        1.73680
C         -1.21950       -3.77220        1.41720
O         -2.20070       -4.03890        2.38350
C         -1.56160       -2.90730        0.17630
H          1.24630        1.79970       -1.33810
H         -0.45130        2.11770       -0.96270
H          0.76780        2.20720        0.31380
H          0.56000       -2.95240       -0.35820
H          0.88550       -3.20920        2.11420
H         -0.38880       -1.99680        2.40070
H         -0.83590       -4.75130        1.11360
H         -2.56470       -3.19690        2.67730
H         -2.29060       -2.13150        0.43220
H         -1.87550       -3.40480       -0.74350
