18
gdb 12879	2.77771	2.20807	1.78247	2.2284	66.85	-0.2334	0.0768	0.3103	839.2166	0.154942	-384.929778	-384.922396	-384.921451	-384.960891	28.9
C         -0.04920        1.50680        0.00200
C          0.01720       -0.00010        0.01580
C         -1.24580       -0.78560       -0.30140
O         -1.03750       -2.10660        0.20900
C         -0.20660       -2.00180        1.37380
C          0.70250       -0.81820        1.11420
C          1.29680       -0.74960       -0.27300
O          1.38240       -1.84950       -1.12730
H          0.90850        1.94550        0.29770
H         -0.28910        1.88700       -0.99790
H         -0.81390        1.88110        0.69360
H         -2.11780       -0.31150        0.17660
H         -1.45170       -0.88710       -1.37250
H         -0.81450       -1.83850        2.27650
H          0.31530       -2.95900        1.47590
H          1.20110       -0.34880        1.95550
H          2.18670       -0.13670       -0.38010
H          0.57970       -2.37470       -0.99930
