16
gdb 6196	3.78472	1.66204	1.55629	5.3093	60.5	-0.2871	0.0449	0.332	885.7893	0.129969	-420.943691	-420.93603	-420.935085	-420.975661	28.248
C          0.06620        1.46360        0.11090
C         -0.04610       -0.05370       -0.03530
C         -1.49050       -0.53340       -0.05780
C          0.79790       -0.59330       -1.21120
O          2.02890       -0.98370       -0.60340
C          1.85430       -1.10450        0.74040
O          2.67110       -1.53320        1.49080
O          0.62250       -0.66700        1.09570
H          1.11440        1.77710        0.10250
H         -0.45110        1.96590       -0.71260
H         -0.38310        1.78740        1.05320
H         -2.00200       -0.15090       -0.94690
H         -1.53360       -1.62550       -0.07340
H         -2.02830       -0.17770        0.82500
H          0.33780       -1.46760       -1.68520
H          1.00470        0.16310       -1.97120
