16
gdb 19378	4.15593	1.72357	1.50061	1.606	63.87	-0.2268	0.0539	0.2807	871.4949	0.129477	-383.650441	-383.643227	-383.642283	-383.681912	27.685
O          0.07840        1.40540        0.22870
C         -0.01670        0.01560       -0.05030
C         -1.45920       -0.36310        0.01120
O         -1.86190       -1.58760       -0.61950
C         -2.53980       -0.36650       -0.96940
C         -3.58780       -0.02200        0.13460
C         -3.57230       -1.03380        1.25010
C         -2.46350       -0.02010        1.16200
H          1.00660        1.61990        0.35840
H          0.37120       -0.23880       -1.04800
H          0.54560       -0.57910        0.68820
H         -2.56940       -0.09560       -2.01810
H         -4.37150        0.71110        0.00110
H         -4.29460       -0.84770        2.03860
H         -3.37890       -2.07740        1.03600
H         -2.25550        0.72230        1.91950
