16
gdb 19238	3.17562	2.08243	1.60549	3.4758	68.42	-0.2297	0.012	0.2417	836.0193	0.13085	-342.744996	-342.737615	-342.736671	-342.776511	27.569
C         -0.24890        1.51420       -0.06680
N          0.06210        0.09390       -0.07220
C          0.70520       -0.49690       -1.24480
C          2.14450       -0.09230       -1.41760
C          1.78470       -1.13680       -0.39160
C          1.12610       -0.46320        0.82410
C          1.95270        0.49590        1.56100
N          2.58960        1.27220        2.13460
H          0.60840        2.17180       -0.27790
H         -1.01810        1.69750       -0.82350
H         -0.66020        1.79400        0.90750
H          0.10240       -0.91870       -2.04110
H          2.62970       -0.48530       -2.30550
H          2.49980        0.88600       -1.10710
H          2.16770       -2.14730       -0.39560
H          0.69390       -1.17090        1.53980
