13
gdb 21497	5.22536	1.55086	1.19831	1.7138	60.74	-0.2465	-0.0095	0.237	917.6438	0.098477	-394.836608	-394.829719	-394.828774	-394.8681	25.245
N         -0.01530        1.35910       -0.03960
C          0.04660       -0.01240       -0.07530
O          1.10460       -0.61130       -0.16580
C         -1.25370       -0.71340       -0.03130
C         -1.38160       -2.09010        0.04010
N         -2.70260       -2.34870        0.05790
N         -3.47000       -1.23760       -0.00270
C         -2.59190       -0.24460       -0.05700
H          0.86530        1.83650        0.07170
H         -0.83630        1.82740        0.30480
H         -0.62730       -2.85880        0.07730
H         -3.15440       -3.24670        0.10620
H         -2.95310        0.77150       -0.12840
