15
gdb 20226	4.57155	2.71517	2.32552	2.1181	69.12	-0.2082	-0.0474	0.1608	638.8237	0.120705	-325.385997	-325.380815	-325.379871	-325.414785	22.241
C         -0.06130        1.65720       -0.04250
C          1.43090        2.00090        0.01320
C          2.10430        0.88430       -0.32580
C          2.45830       -0.21380        0.65720
C          1.01950       -0.63980        0.99290
C          0.04590        0.09020       -0.00050
C          1.20040       -0.18860       -0.96680
N          1.81090       -1.30440       -0.10630
H         -0.56570        2.11680        0.81510
H         -0.62470        1.95720       -0.93730
H          1.80300        2.73810        0.71770
H          3.28970       -0.38160        1.33330
H          0.76310       -1.17660        1.90030
H         -0.89020       -0.46050       -0.12870
H          1.11070       -0.32590       -2.04280
