14
gdb 836	6.99764	1.96734	1.55044	1.9591	60.27	-0.1793	0.0498	0.229	767.312	0.113818	-324.612179	-324.605034	-324.60409	-324.643156	26.021
C         -0.03440        1.49290        0.03860
C          0.01200        0.00230       -0.03860
C          0.04200       -0.84120       -1.13220
C          0.08290       -2.17670       -0.64030
O          0.12110       -3.33640       -1.36340
C          0.07770       -2.12470        0.73260
N          0.03450       -0.78620        1.07920
H          0.84110        1.90990        0.55240
H         -0.05680        1.91670       -0.96790
H         -0.92530        1.85370        0.56810
H          0.03490       -0.53140       -2.16740
H          0.11760       -3.10790       -2.29680
H          0.10010       -2.90860        1.46970
H          0.02150       -0.44250        2.02280
