20
gdb 13710	3.58873	1.20761	1.06653	1.9646	72.	-0.2473	0.0776	0.3248	1188.5079	0.175682	-386.113469	-386.104276	-386.103332	-386.147899	33.278
C         -0.35840        1.37410        0.65510
C          0.03570       -0.03470        0.26770
C          1.42830       -0.32090       -0.26390
C          1.03180       -0.83150        1.08490
O          1.67350       -0.24500        2.17570
C          0.94130       -0.32680        3.39280
C          1.71370        0.49700        4.41190
O          1.87410        1.83410        3.97750
H          0.40780        1.84270        1.27830
H         -0.50680        2.00090       -0.23090
H         -1.29370        1.38110        1.22520
H         -0.76260       -0.62280       -0.17830
H          1.55870       -1.02660       -1.07660
H          2.12920        0.50770       -0.26660
H          0.85240       -1.90060        1.20600
H         -0.06870        0.08360        3.25750
H          0.85090       -1.37390        3.72300
H          1.16360        0.52700        5.35790
H          2.68720        0.01770        4.60110
H          2.26830        1.77380        3.09960
