22
gdb 7459	2.86708	1.33434	1.1527	2.75	74.15	-0.254	0.067	0.321	1177.4152	0.197382	-387.345366	-387.334973	-387.334029	-387.380038	38.524
C          0.10650        1.54750        0.02510
C         -0.00570        0.02350        0.08070
O          0.58990       -0.46870        1.28360
C         -1.44530       -0.51840       -0.07260
C         -2.16680        0.06930       -1.29480
C         -1.40910       -2.06710       -0.10390
C         -2.76440       -2.72470        0.15570
O         -0.82510       -2.54840       -1.31610
H          1.13580        1.84380        0.24460
H         -0.16170        1.94640       -0.95680
H         -0.55030        2.01820        0.76890
H          0.60010       -0.41570       -0.72020
H          0.14230       -0.04180        2.02300
H         -1.99930       -0.22250        0.83240
H         -2.32190        1.14580       -1.19220
H         -1.58680       -0.09520       -2.20950
H         -3.15380       -0.38290       -1.43530
H         -0.71060       -2.38230        0.67630
H         -3.50480       -2.45060       -0.60570
H         -2.65800       -3.81300        0.14160
H         -3.16720       -2.43010        1.13040
H         -1.47360       -2.43940       -2.01970
