15
gdb 16799	3.85556	1.95895	1.41573	4.9909	68.42	-0.2473	-0.0471	0.2001	866.2581	0.119534	-362.680186	-362.673313	-362.672369	-362.711175	25.93
C         -0.01070        1.48540        0.06230
C          0.00550       -0.00460       -0.01160
C         -0.03970       -0.79710       -1.09540
C          0.01480       -2.22060       -0.68900
O          0.08930       -3.20270       -1.37820
N         -0.01650       -2.26280        0.76860
C          1.23530       -1.77180        1.37360
C          0.05430       -0.86830        1.20650
H          0.87960        1.86010        0.58160
H         -0.05240        1.93960       -0.92990
H         -0.87680        1.83470        0.63760
H         -0.03690       -0.49120       -2.13300
H          1.46610       -2.18300        2.35230
H          2.08780       -1.61440        0.71750
H         -0.53480       -0.59390        2.07780
