16
gdb 13583	3.6096	1.37289	1.24307	1.7448	67.57	-0.2472	-0.091	0.1563	1026.7972	0.12857	-383.753331	-383.745056	-383.744111	-383.786469	29.405
C         -0.01220        1.66520        0.09290
C         -0.06960        0.15990        0.20960
C          1.05260       -0.70910       -0.23150
C          0.75270       -0.61910        1.26010
C          1.70770        0.08420        2.13040
O          2.49560        0.94590        1.78880
C          1.71060       -0.31510        3.61480
O          1.00960       -1.17000        4.08840
H          0.99550        2.04200        0.27740
H         -0.31390        1.97110       -0.91480
H         -0.69380        2.14360        0.80400
H         -1.06410       -0.26180        0.08790
H          0.84220       -1.65540       -0.71680
H          1.96900       -0.21840       -0.54320
H          0.25000       -1.45090        1.73730
H          2.44400        0.27350        4.20570
