17
gdb 1091	4.45348	1.59897	1.58665	3.4854	60.84	-0.2411	-0.0169	0.2242	867.4989	0.144446	-346.871133	-346.862389	-346.861444	-346.904195	31.146
C         -0.03000        1.57540        0.15400
C          0.02190        0.04440        0.04480
C          0.72010       -0.56490        1.26760
O         -1.30350       -0.48820       -0.07380
C          0.73790       -0.39790       -1.24820
C          0.08380        0.12280       -2.51080
O          0.67460        0.69050       -3.39560
H          0.97610        2.00510        0.18400
H         -0.56330        2.01100       -0.69560
H         -0.54790        1.87640        1.07220
H          0.19780       -0.27750        2.18770
H          0.71910       -1.65640        1.20170
H          1.75550       -0.21950        1.35090
H         -1.81400       -0.18540        0.68470
H          1.78590       -0.08760       -1.24230
H          0.69870       -1.49500       -1.28990
H         -1.00770       -0.06840       -2.57480
