20
gdb 6632	5.79004	0.72797	0.67815	0.7869	81.87	-0.2394	0.0443	0.2836	1729.4536	0.173198	-348.978327	-348.96771	-348.966766	-349.015936	35.867
C         -0.00820        1.46980       -0.14620
C         -0.02430        0.02220        0.00290
C         -0.04580       -1.17480        0.12270
C         -0.04640       -2.62360        0.27900
O         -1.33440       -3.13860       -0.00630
C         -1.40560       -4.56110       -0.05310
C         -1.34730       -5.18740        1.34410
C         -2.70490       -4.89690       -0.77680
H          0.74680        1.78880       -0.87320
H         -0.97930        1.83750       -0.49560
H          0.21210        1.96860        0.80410
H          0.70020       -3.07350       -0.39920
H          0.26880       -2.87960        1.30350
H         -0.55530       -4.93850       -0.64780
H         -1.43480       -6.27650        1.27690
H         -0.40640       -4.96450        1.85560
H         -2.17040       -4.81100        1.96000
H         -2.71940       -4.43500       -1.76720
H         -2.81550       -5.97930       -0.89110
H         -3.56190       -4.51880       -0.21050
