16
gdb 7297	3.7103	1.32951	1.10891	4.5312	66.88	-0.2629	0.0077	0.2707	1077.5373	0.129051	-379.962828	-379.953728	-379.952784	-379.997461	30.85
C         -0.32500        1.37020        0.13650
N         -0.08430       -0.05280       -0.02940
C         -0.01600       -0.84390        1.18720
C         -1.29140       -0.85800        1.91860
N         -2.29240       -0.84290        2.49540
C          0.10390       -0.71330       -1.22880
C          0.03600        0.11580       -2.50040
O          0.31880       -1.91170       -1.26500
H         -0.39210        1.86420       -0.82970
H         -1.26360        1.54190        0.67630
H          0.48780        1.83870        0.70730
H          0.25190       -1.86170        0.89250
H          0.76180       -0.45720        1.85910
H          0.79430        0.90450       -2.51470
H          0.21220       -0.56180       -3.33460
H         -0.94360        0.58730       -2.62440
