15
gdb 9184	7.41061	0.88501	0.8023	2.987	63.43	-0.2929	-0.0063	0.2866	1360.7308	0.116748	-399.846708	-399.83778	-399.836836	-399.882284	29.508
C         -0.07010        1.45370        0.12890
C          0.04720       -0.05500       -0.07450
C          0.77180       -0.41710       -1.35020
O          1.22760        0.34630       -2.16090
O          0.85560       -1.76870       -1.48720
C          1.52950       -2.19520       -2.67440
C          1.53790       -3.65650       -2.68940
N          1.56340       -4.80970       -2.73430
H          0.91670        1.92100        0.17520
H         -0.61550        1.91930       -0.69570
H         -0.59960        1.67010        1.06020
H          0.57850       -0.53590        0.75520
H         -0.93700       -0.53730       -0.10580
H          1.02060       -1.81110       -3.56450
H          2.55470       -1.81140       -2.69350
