12
gdb 1835	6.37633	2.13522	1.63204	2.3925	50.9	-0.249	-0.0394	0.2096	694.6093	0.090607	-360.575745	-360.569559	-360.568615	-360.606346	22.122
O         -0.02600        0.01960        0.00450
C         -0.01350        1.21970        0.01110
C         -1.27410        2.10330        0.03230
N         -0.73470        3.44440        0.03140
C          0.63320        3.55700        0.01400
O          1.25300        4.59510        0.01050
C          1.20050        2.13730       -0.00110
H         -1.89350        1.88300       -0.84690
H         -1.86960        1.87460        0.92580
H         -1.30320        4.27650        0.04350
H          1.84080        1.96060        0.86850
H          1.81650        1.96950       -0.88990
