13
gdb 18925	3.61558	2.70952	2.08138	3.8331	56.26	-0.2266	-0.0279	0.1986	659.162	0.097328	-398.530597	-398.52525	-398.524306	-398.559915	21.663
O         -0.00260        0.09530        0.04720
C         -0.02480        1.28740        0.02420
C         -1.17810        2.30890       -0.04130
N         -0.90410        2.91550        1.32310
C          0.27220        3.53410        0.64690
C         -0.34450        3.45520       -0.76160
O          0.83720        2.86530       -1.34060
C          1.09410        2.34850        0.01000
H         -2.18220        1.97910       -0.28990
H         -1.58920        3.64990        1.49630
H          0.78980        4.37670        1.10110
H         -0.82260        4.23460       -1.35390
H          2.12850        2.08980        0.21620
