22
gdb 13500	3.00175	1.54994	1.15578	1.7994	77.55	-0.2394	0.074	0.3134	1124.1048	0.199071	-350.197491	-350.188124	-350.18718	-350.231473	34.554
C         -0.69480        1.48940        0.65620
C         -0.26810        0.07670        0.22750
C          0.45380        0.12240       -1.12710
C          0.60500       -0.56350        1.30720
C          0.00630       -0.79690        2.71030
O          0.44100       -2.16910        2.72310
C          0.88300       -2.09960        1.34360
C          0.08250       -3.04630        0.46510
H          0.17890        2.13910        0.78690
H         -1.33960        1.94980       -0.09950
H         -1.24630        1.47780        1.60180
H         -1.17920       -0.52610        0.11310
H          1.35950        0.73740       -1.06290
H          0.75220       -0.87340       -1.46760
H         -0.18860        0.55960       -1.89850
H          1.54660       -0.00670        1.37000
H          0.43740       -0.21820        3.53560
H         -1.08960       -0.71640        2.76080
H          1.94960       -2.35220        1.27370
H         -0.98500       -2.80910        0.47820
H          0.43430       -3.02720       -0.57140
H          0.20260       -4.06680        0.84260
