18
gdb 16164	4.2249	1.60829	1.37353	1.4445	72.97	-0.2246	0.0256	0.2503	943.8509	0.154704	-347.795515	-347.788043	-347.787098	-347.827141	28.947
O          0.00650        1.35910        0.37750
C          0.03020        0.01420       -0.09170
C         -1.37810       -0.50920       -0.08420
C         -1.97810       -1.07410        1.18930
C         -1.73090       -1.98800        0.01630
C         -2.88470       -2.25790       -0.95100
C         -3.22400       -0.88110       -1.48730
C         -2.38760        0.05430       -1.03330
H          0.88190        1.73550        0.24670
H          0.44150       -0.03480       -1.11270
H          0.66320       -0.62020        0.54970
H         -1.31660       -1.18440        2.04310
H         -2.99670       -0.79500        1.43820
H         -0.95000       -2.73360        0.11670
H         -2.58300       -2.93910       -1.75850
H         -3.74160       -2.73260       -0.45510
H         -4.06850       -0.70370       -2.14390
H         -2.41850        1.11080       -1.27210
