19
gdb 11507	4.80862	1.09579	0.95272	1.1702	78.14	-0.2369	0.0587	0.2956	1237.3052	0.163682	-327.860857	-327.851908	-327.850963	-327.894522	32.916
C         -0.13340        1.58050       -0.04750
C         -0.03160        0.04280       -0.03670
C         -1.41040       -0.65220        0.02650
N         -2.11350       -0.32400        1.26090
C         -3.15860        0.69440        1.18570
C         -3.50940       -0.74350        1.32840
C          0.71100       -0.44290       -1.19850
C          1.29990       -0.83860       -2.16930
H          0.86190        2.02950       -0.09640
H         -0.70130        1.92620       -0.91740
H         -0.62890        1.93420        0.85940
H          0.50940       -0.25470        0.87120
H         -1.99330       -0.39150       -0.87520
H         -1.25270       -1.73560        0.00660
H         -3.22680        1.36770        2.03550
H         -3.34960        1.15890        0.21960
H         -3.93510       -1.23870        0.45690
H         -3.83710       -1.14290        2.28400
H          1.83270       -1.19050       -3.01760
