14
gdb 16881	4.2535	2.00361	1.50027	3.6648	57.56	-0.2535	0.0024	0.256	802.6741	0.10796	-419.68095	-419.674602	-419.673657	-419.71155	24.21
O         -0.03050        0.12880       -0.74710
C         -0.04910        1.13380       -0.09710
C         -1.30960        1.95540        0.15420
O         -1.28280        2.62810        1.40200
C         -0.18620        3.48820        1.48510
C          0.88960        3.11490        2.47310
C          1.10890        2.91140        0.99850
O          1.08800        1.59170        0.49260
H         -1.44950        2.65750       -0.68240
H         -2.15540        1.26710        0.16740
H         -0.41320        4.53620        1.29590
H          1.44250        3.90390        2.96950
H          0.70150        2.22510        3.06260
H          1.82520        3.52930        0.46800
