15
gdb 7918	3.51003	1.84774	1.29265	6.8474	65.31	-0.233	-0.0101	0.2229	915.1641	0.119443	-399.862198	-399.854667	-399.853723	-399.893742	28.388
C         -0.03200        1.52860        0.01010
C          0.03930        0.00220        0.03340
O          0.78380       -0.46310       -1.08560
C          1.85720       -1.23930       -0.65600
O          2.61960       -1.73100       -1.44040
C          1.81900       -1.28820        0.80340
C          0.76160       -0.57400        1.23560
N          0.27770       -0.37900        2.49330
H          0.97040        1.95720        0.09310
H         -0.47770        1.86110       -0.93020
H         -0.65030        1.91120        0.82950
H         -0.97470       -0.41810       -0.02760
H          2.54900       -1.83040        1.38470
H          0.87110       -0.61280        3.27310
H         -0.34060        0.39910        2.65470
