19
gdb 19586	4.10031	1.95944	1.81068	1.5403	74.31	-0.2234	0.0993	0.3227	827.6608	0.168263	-327.86646	-327.860002	-327.859057	-327.896553	27.103
C         -0.06730        1.62730        0.02790
C         -0.01290        0.10170        0.01830
C          0.69030       -0.59600       -1.18590
C          2.04360       -0.27070       -0.45330
C          1.15690       -0.58370        0.78970
N          1.02380       -2.07140        0.61280
C         -0.30720       -2.57950        0.23490
C          0.61040       -2.08820       -0.82530
H          0.88510        2.10940       -0.20300
H         -0.80230        1.98460       -0.70200
H         -0.38640        1.98610        1.01290
H         -1.01920       -0.24960        0.25240
H          0.49520       -0.31220       -2.22050
H          2.88080       -0.95110       -0.62370
H          2.37000        0.76450       -0.53930
H          1.43330       -0.30950        1.80810
H         -0.38740       -3.65600        0.36440
H         -1.21230       -2.04740        0.50190
H          1.11560       -2.79820       -1.47600
