15
gdb 4761	4.54135	1.55405	1.17009	3.9597	66.96	-0.1716	0.0535	0.2251	991.8745	0.119046	-395.99154	-395.983339	-395.982395	-396.024428	29.344
C         -0.07000        1.42830        0.03800
N         -0.01180       -0.02140        0.05140
C         -1.09220       -0.67080        0.09550
N         -1.24490       -2.04320        0.12540
C         -2.61800       -2.34830       -0.03910
C         -3.27470       -1.18230        0.01310
N         -4.60820       -0.81450        0.10610
O         -2.37970       -0.13700        0.11880
H          0.85420        1.81850       -0.39870
H         -0.91750        1.82780       -0.53660
H         -0.14560        1.83630        1.05610
H         -0.49930       -2.61910       -0.22700
H         -2.98380       -3.35890       -0.07440
H         -5.23340       -1.58090       -0.10560
H         -4.82710       -0.01330       -0.47600
