15
gdb 1737	5.19789	1.79772	1.62929	4.5745	61.05	-0.2608	0.0338	0.2946	792.8581	0.125138	-304.692914	-304.685613	-304.684669	-304.724301	26.384
C         -0.01840        1.57040       -0.18710
C         -0.02610        0.06090       -0.07340
C         -1.32140       -0.55230        0.45970
C         -1.68660       -0.03450        1.77920
N         -1.96670        0.39560        2.81450
C          0.78130       -0.74660       -1.02340
N          1.17890       -0.63670        0.39300
H          0.92750        1.92300       -0.60930
H         -0.82720        1.92240       -0.83710
H         -0.15320        2.03730        0.79420
H         -2.14810       -0.35170       -0.23240
H         -1.20420       -1.63740        0.53100
H          0.45010       -1.73570       -1.32930
H          1.35700       -0.21300       -1.77510
H          1.94900        0.01940        0.49530
