18
gdb 11357	4.1184	1.48048	1.15137	1.4069	69.73	-0.2141	0.0612	0.2753	1064.0491	0.155086	-381.142772	-381.134549	-381.133604	-381.175448	29.877
C         -0.01130        1.35250        0.08350
O         -0.12910       -0.06050       -0.10140
C          0.53770       -0.55120       -1.14850
N          1.25470        0.11000       -1.97290
C          1.76220       -0.87930       -2.94190
C          3.23650       -0.66390       -3.26440
C          1.45200       -2.26870       -2.30340
N          0.38870       -1.91680       -1.35540
H          1.03470        1.63600        0.22840
H         -0.40020        1.88740       -0.78690
H         -0.59920        1.58550        0.97190
H          1.18250       -0.77560       -3.87130
H          3.84360       -0.73960       -2.35620
H          3.59420       -1.40960       -3.98320
H          3.39200        0.32970       -3.69310
H          1.11310       -3.00990       -3.03190
H          2.33880       -2.66890       -1.78910
H          0.27140       -2.48370       -0.52730
