17
gdb 20102	4.63993	1.5456	1.39706	1.549	68.52	-0.2397	0.0715	0.3112	931.7575	0.14281	-363.793856	-363.786754	-363.78581	-363.82546	27.132
C         -0.03670        1.52360       -0.00870
N          1.23850        0.79440       -0.08820
C         -0.02020        0.03660        0.03010
C         -0.21160       -0.71490        1.29020
C          0.30880       -0.38230        2.69900
C          0.30520       -1.92080        3.01080
C         -0.21660       -2.16080        1.58820
O         -1.44590       -1.43060        1.45630
H         -0.18000        2.08460        0.91040
H         -0.42910        2.00440       -0.90050
H          1.57030        0.76720       -1.04820
H         -0.39680       -0.48200       -0.84900
H          1.31300        0.04420        2.68440
H         -0.35600        0.24280        3.29980
H          1.31020       -2.31690        3.17310
H         -0.35770       -2.26220        3.80920
H         -0.08540       -3.02230        0.94240
