20
gdb 3069	9.27497	1.00704	0.96636	1.0427	72.4	-0.2293	0.0912	0.3205	1260.8928	0.182828	-291.01602	-291.007622	-291.006678	-291.049188	30.002
C         -0.06150        1.53920       -0.18960
C         -0.02080        0.03120        0.07240
C         -1.40230       -0.62660       -0.00170
C         -1.36380       -2.13190        0.25930
N         -2.70500       -2.70670        0.22420
C         -3.17600       -3.16420       -1.07910
C         -2.78840       -4.14050       -0.02340
H          0.93680        1.98360       -0.12700
H         -0.46120        1.75690       -1.18630
H         -0.70030        2.04990        0.53950
H          0.65150       -0.44770       -0.65200
H          0.41840       -0.15640        1.06140
H         -2.07930       -0.16280        0.72610
H         -1.84370       -0.44460       -0.99080
H         -0.68900       -2.62060       -0.46990
H         -0.94580       -2.32570        1.25560
H         -4.22200       -2.97400       -1.30180
H         -2.50280       -3.06250       -1.92990
H         -1.85900       -4.68860       -0.17280
H         -3.54620       -4.67640        0.54130
