17
gdb 17641	3.25939	1.41441	1.23373	3.6389	64.56	-0.2469	0.0258	0.2726	1034.4428	0.140663	-401.012724	-401.003679	-401.002734	-401.047357	31.587
C          0.15820        1.52590        0.20450
C         -0.11000        0.01810        0.05980
C          0.53830       -0.74690        1.19980
C          1.19230       -2.04520        1.00480
O          1.96140       -0.84810        1.15700
C         -1.61770       -0.24720        0.09650
N         -2.15140       -0.78880       -1.03560
O         -2.28750        0.00220        1.08140
H          1.23400        1.70810        0.26730
H         -0.24020        2.08230       -0.64940
H         -0.32140        1.90420        1.11100
H          0.32410       -0.34070       -0.88080
H          0.12450       -0.51780        2.18130
H          1.25660       -2.75150        1.83100
H          1.21890       -2.49200        0.01130
H         -1.61210       -0.93130       -1.87070
H         -3.14790       -0.93220       -1.07070
