14
gdb 20956	7.66584	1.22276	1.06869	2.6404	59.89	-0.2619	-0.0044	0.2575	1065.0929	0.107579	-415.85876	-415.851502	-415.850558	-415.891113	25.181
C          0.00040        1.47060       -0.02440
C         -0.00220       -0.04330        0.01040
O          0.67820       -0.49900       -1.18570
C          0.79530       -1.79360       -1.36720
N          1.37450       -2.37060       -2.38150
C          1.20560       -3.68910       -2.05650
N          0.57880       -3.94120       -0.93970
O          0.29120       -2.63600       -0.45730
H          1.02290        1.85690       -0.03800
H         -0.52250        1.83960       -0.91050
H         -0.50570        1.85750        0.86440
H          0.52640       -0.43450        0.88530
H         -1.01770       -0.45180        0.01350
H          1.56550       -4.49750       -2.67740
