12
gdb 10376	2.42153	2.24968	1.40711	2.7112	59.	-0.2979	-0.0285	0.2694	853.7587	0.083744	-377.507582	-377.500213	-377.499269	-377.540349	25.005
N         -0.06220       -1.19340       -0.09180
C         -0.05800       -0.03890       -0.06450
C         -0.01750        1.41740        0.00860
C         -0.11020        2.01200        1.46130
O          1.22050        2.53280        1.38680
C          1.42570        2.03970        0.05940
C         -0.91700        2.02690       -0.96470
N         -1.61700        2.54630       -1.72240
H         -0.86800        2.79350        1.57010
H         -0.22790        1.25390        2.24110
H          2.22770        1.29800       -0.00030
H          1.58750        2.83770       -0.67130
