20
gdb 7821	3.23214	1.63536	1.16606	1.6539	71.56	-0.2477	0.0792	0.3269	1056.625	0.177837	-386.156503	-386.148374	-386.147429	-386.188528	31.566
C         -0.00590        1.51830        0.04920
C          0.02880       -0.00140       -0.01220
C          0.71090       -0.53360       -1.28040
C          0.82230       -2.05580       -1.24390
O          1.55690       -2.45900       -2.39120
C          1.48510       -2.49210        0.06730
C          0.75620       -1.86110        1.25750
O          0.71230       -0.45130        1.15420
H          1.01070        1.92310        0.02930
H         -0.55890        1.92530       -0.80260
H         -0.48940        1.85090        0.97150
H         -1.00670       -0.38850        0.01790
H          0.15510       -0.22180       -2.17110
H          1.71970       -0.10970       -1.35400
H         -0.19650       -2.48160       -1.27810
H          1.65800       -3.41600       -2.35810
H          1.47740       -3.58600        0.16270
H          2.53070       -2.16340        0.05930
H         -0.26770       -2.26900        1.32960
H          1.26900       -2.08570        2.19720
