20
gdb 12922	3.30044	1.53564	1.28807	1.2496	74.83	-0.2419	0.0821	0.324	1045.5245	0.176585	-348.975678	-348.967206	-348.966262	-349.008482	32.254
C          0.02200        1.42460       -0.29820
C         -0.00990       -0.00930        0.24460
C         -1.38580       -0.63890        0.14170
C         -1.98970       -1.24600       -1.11560
C         -0.93960       -2.03010       -1.91360
C         -0.67520       -2.93060       -0.66210
C         -1.71120       -2.10660        0.11510
O         -2.64410       -2.67520        0.96930
H          1.01980        1.86490       -0.20430
H         -0.26090        1.44970       -1.35570
H         -0.67910        2.06830        0.24460
H          0.72840       -0.61680       -0.28960
H          0.30770       -0.00910        1.29600
H         -2.15060       -0.09930        0.70060
H         -2.93950       -0.89740       -1.50290
H         -1.37010       -2.59190       -2.74500
H         -0.08810       -1.45550       -2.29110
H         -1.02790       -3.95250       -0.81720
H          0.34390       -2.96570       -0.26240
H         -2.31540       -2.59930        1.87150
