15
gdb 5773	6.14253	1.398	1.23048	2.9397	69.06	-0.2004	0.0306	0.231	960.939	0.120579	-362.671149	-362.664319	-362.663375	-362.702821	25.555
C          0.19610        1.55990        0.05470
O          1.14290        0.53170       -0.23180
C         -0.19590        0.13600        0.07340
C         -0.39230       -0.62220        1.32190
C          0.39620       -0.73400        2.44760
C         -0.28040       -1.58560        3.36220
C         -1.46140       -1.97180        2.77160
N         -1.51740       -1.38550        1.53200
H          0.33700        2.07330        1.00420
H         -0.08100        2.19050       -0.79000
H         -0.75990       -0.23220       -0.78730
H          1.36120       -0.26950        2.57620
H          0.06530       -1.88860        4.33850
H         -2.25670       -2.61100        3.11930
H         -2.27460       -1.48670        0.87860
