13
gdb 3460	4.72941	2.693	2.68437	2.5516	53.1	-0.2501	-0.0147	0.2354	579.87	0.103121	-344.440744	-344.435338	-344.434394	-344.469853	20.729
O          0.00130       -0.03270       -0.08010
C         -0.01270        1.14980        0.04860
C         -1.03600        2.31070        0.04070
C         -0.80220        2.98260        1.40710
C          0.76670        3.00360        1.38440
C          0.97870        2.33760        0.01160
O         -0.04950        2.97570       -0.81630
H         -2.03620        2.24900       -0.38220
H         -1.23250        3.98570        1.42940
H         -1.21770        2.40380        2.23620
H          1.17050        4.01780        1.39470
H          1.22130        2.43640        2.20090
H          1.96760        2.30250       -0.44020
