17
gdb 15815	4.80874	1.19687	1.00337	2.3139	66.7	-0.2553	0.0343	0.2896	1182.5232	0.141257	-401.011698	-401.003107	-401.002163	-401.045796	29.656
C          0.12170        1.47140       -0.16380
C          0.19390       -0.03960       -0.05800
O          0.56500       -0.54780       -1.35360
C          0.65640       -1.88970       -1.43800
O          0.47790       -2.65410       -0.52110
N          0.91670       -2.26700       -2.75120
C          2.11450       -1.86630       -3.46840
C          1.89490       -3.28940       -3.05120
H          1.08840        1.88990       -0.45810
H         -0.62410        1.77550       -0.90350
H         -0.15780        1.89750        0.80430
H          0.93590       -0.36370        0.67880
H         -0.76680       -0.47610        0.23240
H          1.96670       -1.56750       -4.50210
H          2.85730       -1.28910       -2.92480
H          2.48070       -3.67400       -2.22100
H          1.58960       -4.03000       -3.78430
