19
gdb 15886	2.58829	1.86684	1.19538	3.667	72.28	-0.241	0.0384	0.2794	1049.8974	0.165038	-365.098119	-365.089301	-365.088357	-365.13156	32.098
C          0.08180        1.65350       -0.00380
C         -0.09330        0.12980        0.00720
C          0.65530       -0.51380        1.17230
C          0.73960       -2.07870        1.29800
C          0.07770       -2.94460        0.23560
N          2.19670       -1.92780        1.16910
C          2.20030       -0.56010        1.05770
O          3.08320        0.24670        0.91740
H          1.14190        1.91780       -0.04460
H         -0.42210        2.10010       -0.86610
H         -0.34030        2.10420        0.90140
H         -1.15870       -0.12580        0.07230
H          0.26790       -0.28390       -0.94140
H          0.34820       -0.04970        2.11570
H          0.44550       -2.42870        2.29540
H          0.36710       -2.63540       -0.77210
H          0.36420       -3.99410        0.36220
H         -1.01260       -2.88800        0.31820
H          2.95310       -2.59450        1.22510
