15
gdb 14537	4.51652	1.60958	1.43525	3.5077	65.88	-0.2584	0.0197	0.2781	878.1352	0.118695	-362.630266	-362.623019	-362.622075	-362.661572	26.991
C         -0.00730        1.53760        0.00460
C          0.03730        0.02040       -0.05060
C         -1.10570       -0.65130        0.51700
N         -2.02230       -1.18400        0.98130
C          0.65540       -0.78080       -1.20960
C          1.91020       -0.06960       -1.69940
O          2.44280       -0.01270       -0.34310
C          1.33550       -0.76370        0.13020
H          0.98540        1.94600       -0.19190
H         -0.71460        1.94150       -0.72530
H         -0.31630        1.87000        0.99920
H          0.10890       -1.55980       -1.72190
H          2.54300       -0.70660       -2.32500
H          1.80690        0.92070       -2.15380
H          1.49720       -1.50460        0.90390
