20
gdb 7644	4.46853	1.09536	0.95401	1.5352	71.17	-0.2552	0.0688	0.324	1242.2471	0.175653	-386.128627	-386.11957	-386.118626	-386.162229	33.918
C         -0.20300        1.47470       -0.04970
C          0.01740       -0.03870       -0.06220
O          0.70080       -0.45560       -1.24310
C          0.73060       -0.53950        1.18830
C         -0.02660       -0.52410        2.54820
C          0.63980       -1.88910        2.87040
O         -0.06380       -2.87050        3.58710
C          0.92260       -2.07180        1.35680
H          0.75610        2.00480        0.01110
H         -0.71070        1.79250       -0.96430
H         -0.80710        1.78240        0.80990
H         -0.95730       -0.54060       -0.12720
H          1.56190       -0.02280       -1.24900
H          1.69310       -0.01950        1.28510
H          0.13360        0.30880        3.23640
H         -1.10590       -0.65030        2.39400
H          1.57190       -1.73900        3.42390
H         -0.87970       -3.05730        3.11060
H          0.10520       -2.61740        0.86950
H          1.86910       -2.52370        1.05420
