19
gdb 14391	4.04368	1.86338	1.57991	1.665	74.79	-0.2166	0.0645	0.2812	884.0899	0.165248	-327.829445	-327.821944	-327.820999	-327.860581	30.08
C         -0.04540        1.59190        0.00730
C          0.06370        0.06630       -0.06290
C         -1.09010       -0.60080        0.68840
C          0.47720       -0.75400       -1.25930
C          1.79290       -0.32600       -1.93890
C          2.56000        0.78430       -1.32440
N          2.59410       -0.53990       -0.68070
C          1.28610       -0.84180        0.02130
H          0.17530        2.07700       -0.94490
H         -1.07130        1.86870        0.27200
H          0.60830        2.02010        0.77490
H         -2.05070       -0.31950        0.24240
H         -1.01730       -1.69210        0.66650
H         -1.10170       -0.28320        1.73690
H         -0.16880       -1.49900       -1.70850
H          2.11510       -0.78470       -2.86900
H          3.51000        1.01280       -1.80240
H          2.10410        1.62810       -0.83250
H          1.33470       -1.62880        0.76470
