10
gdb 21323	6.35422	1.61177	1.28566	1.1057	61.26	-0.2694	-0.1184	0.151	831.6792	0.062463	-372.511464	-372.50558	-372.504636	-372.541724	20.753
N         -0.01750       -1.15630       -0.00340
C          0.01810       -0.00080        0.00250
C          0.00300        1.43700        0.01060
C         -1.21080        2.13700        0.03060
N         -1.23880        3.46580        0.03830
N         -0.08610        4.12780        0.02650
C          1.04530        3.41910        0.00750
N          1.16240        2.08970       -0.00140
H         -2.16790        1.62680        0.04070
H          1.96400        3.99740       -0.00170
