20
gdb 6480	2.95953	1.7886	1.4062	2.5419	71.12	-0.2464	0.0751	0.3215	977.3314	0.175392	-386.120977	-386.112216	-386.111272	-386.153618	33.53
C         -0.00610        1.32010        0.11930
O         -0.05100       -0.07820       -0.08820
C          0.67080       -0.57180       -1.22780
C          0.18820        0.03690       -2.53400
C          2.20330       -0.61230       -0.92450
C          1.99420       -2.02210       -0.29540
O          1.84350       -2.01330        1.10610
C          0.65320       -2.11620       -1.07860
H          1.02180        1.70930        0.12030
H         -0.58530        1.86850       -0.63480
H         -0.45050        1.50680        1.10010
H          0.42390        1.10360       -2.60510
H          0.67070       -0.46210       -3.37930
H         -0.89550       -0.08380       -2.63650
H          2.79890       -0.64800       -1.84160
H          2.61030        0.15530       -0.26180
H          2.75240       -2.77610       -0.51820
H          1.12950       -1.39060        1.29580
H         -0.20030       -2.53480       -0.54050
H          0.76620       -2.61780       -2.04340
