14
gdb 2169	3.81949	3.11023	1.81928	2.6161	54.34	-0.2693	0.0189	0.2882	673.3919	0.115102	-361.73193	-361.725633	-361.724689	-361.762049	23.532
O          0.37810        1.10310        0.60210
C         -0.01470       -0.11240        0.03000
C         -1.50860       -0.21950       -0.29600
C         -1.49250       -1.25220       -1.42930
O         -0.23880       -1.04210       -2.12610
C          0.60620       -0.33660       -1.33730
N          1.73670        0.12670       -1.65390
H          1.21900        1.32850        0.17620
H          0.27770       -0.96150        0.67360
H         -2.12640       -0.52790        0.54880
H         -1.86010        0.75240       -0.65540
H         -1.51090       -2.28150       -1.05250
H         -2.29650       -1.13080       -2.15730
H          1.98770       -0.08330       -2.61960
