17
gdb 19620	4.68813	1.9749	1.81473	1.6841	71.39	-0.2316	0.079	0.3106	787.658	0.144117	-326.646678	-326.640562	-326.639617	-326.676564	25.213
C         -0.09770        1.50210       -0.04440
C          1.22470        0.75550        0.01340
C         -0.06860        0.00630       -0.00410
C         -0.52700       -0.98930        1.02200
C         -1.72740       -1.69580        0.47040
C         -2.03270       -1.13800       -0.90950
C         -0.49760       -1.03580       -1.02990
N         -0.34900       -2.14610        0.07120
H         -0.42180        2.03670        0.84260
H         -0.36720        1.98640       -0.97790
H          1.84050        0.74110       -0.88030
H          1.78900        0.78780        0.94010
H         -0.23230       -1.06600        2.06310
H         -2.35930       -2.32080        1.09210
H         -2.43490       -1.91780       -1.56140
H         -2.62350       -0.22160       -1.00900
H          0.01750       -1.14650       -1.98270
