18
gdb 18896	3.03976	2.57086	1.78155	0.3412	75.14	-0.2107	0.0891	0.2999	815.5081	0.152602	-310.568948	-310.561638	-310.560694	-310.599868	28.957
C          0.05720        1.52200       -0.03980
C          0.00320        0.02970       -0.01440
C          0.84190       -1.00050       -0.76060
C          0.84360       -0.97460        0.76450
C         -0.34970       -1.97290        0.78280
C         -0.35130       -1.99880       -0.74230
C         -1.20390       -0.98020        0.00400
C         -2.68260       -0.77020        0.00200
H          1.09730        1.86740       -0.04700
H         -0.43190        1.93150       -0.93190
H         -0.42960        1.96150        0.83930
H          1.65920       -0.84660       -1.45360
H          1.66240       -0.79740        1.45000
H         -0.65620       -2.73710        1.48550
H         -0.65930       -2.78650       -1.41800
H         -3.20600       -1.73300        0.01880
H         -3.01350       -0.20010        0.87860
H         -3.01530       -0.23010       -0.89270
