20
gdb 16330	2.86494	1.81281	1.38697	1.3945	74.64	-0.2477	0.0732	0.321	982.6826	0.177044	-348.975785	-348.967417	-348.966473	-349.008375	31.931
C         -0.20450        1.52420        0.00680
C          0.04800        0.02290       -0.04820
C          1.23220       -0.54250       -0.90850
C          1.77350       -1.25810        0.33570
C          2.07300       -0.25120        1.41000
C          0.64040       -0.68060        1.18900
C         -0.17870       -1.30520        2.27680
O         -0.82860       -0.33270        3.09180
H          0.70400        2.07980        0.26300
H         -0.55880        1.90130       -0.95900
H         -0.96350        1.75470        0.76150
H         -0.87930       -0.48630       -0.33290
H          0.89650       -1.21810       -1.69810
H          1.90650        0.19990       -1.35020
H          2.19460       -2.25650        0.35850
H          2.53770       -0.65360        2.30600
H          2.41510        0.74700        1.14680
H         -0.98870       -1.90950        1.85200
H          0.45000       -1.98010        2.88130
H         -0.14540        0.26400        3.41580
