18
gdb 8091	3.46522	2.15881	1.72825	0.6847	66.9	-0.246	0.0719	0.3178	808.4402	0.155658	-384.927113	-384.920313	-384.919369	-384.957538	27.714
O         -0.04210        1.41540       -0.05980
C          0.00460        0.01790        0.04210
C          0.25550       -0.70030        1.40260
C         -0.66750       -1.80860        0.81630
C         -1.35880       -0.69430       -0.01720
C          0.15840       -2.69770       -0.12060
O          1.22790       -1.97090       -0.71680
C          0.93220       -0.61500       -1.01300
H          0.85610        1.75800        0.01110
H          1.28090       -0.96780        1.66870
H         -0.22790       -0.16010        2.21960
H         -1.28190       -2.40240        1.49530
H         -2.11010       -0.15150        0.56160
H         -1.76040       -0.95240       -1.00230
H          0.63280       -3.51910        0.42740
H         -0.49410       -3.13850       -0.89240
H          0.47760       -0.50630       -2.01100
H          1.89900       -0.09390       -1.02570
