14
gdb 18185	4.39953	1.86279	1.53749	1.8101	66.67	-0.2526	-0.0075	0.2451	814.5841	0.108035	-341.522007	-341.515436	-341.514492	-341.552682	25.223
C         -0.05040       -1.25220       -0.09720
C         -0.03240       -0.05390       -0.01520
C          0.01970        1.40190        0.06940
N         -0.56070        1.90650        1.34600
C          0.30710        2.67620        1.86490
N          1.53780        2.92090        1.18260
C          2.36190        1.67670        1.13920
C          1.43940        1.99850        0.02940
H         -0.07780       -2.31160       -0.16640
H         -0.57340        1.82210       -0.75350
H          0.14700        3.18760        2.81000
H          3.42680        1.84860        1.02330
H          2.08560        0.87370        1.81670
H          1.82690        2.36140       -0.91560
