16
gdb 9796	3.03229	1.65215	1.40327	3.8609	64.87	-0.2717	0.0249	0.2966	939.9197	0.130109	-379.906246	-379.897806	-379.896862	-379.939165	31.008
N         -0.09660        1.43580        0.09480
C          0.06110       -0.01780       -0.02200
C          0.78950       -0.42030       -1.24760
N          1.34930       -0.69870       -2.22010
C          0.75940       -0.55050        1.22980
O          1.90490        0.17720        1.56920
C         -0.06690       -1.14260        2.33990
C          0.82020       -2.02220        1.47810
H          0.80920        1.87260       -0.05310
H         -0.70200        1.78070       -0.64380
H         -0.93690       -0.46500       -0.07630
H          1.60530        0.99310        1.98750
H          0.26730       -0.94190        3.35170
H         -1.14290       -1.20580        2.21950
H          0.35520       -2.68870        0.75970
H          1.73710       -2.39550        1.91800
