20
gdb 16764	4.78856	1.38611	1.22167	1.3483	74.64	-0.2332	0.0874	0.3206	1065.08	0.177847	-349.000578	-348.992764	-348.99182	-349.032886	30.037
C          0.09460        1.51910       -0.09860
C          0.09400       -0.01090       -0.04370
C          0.72440       -0.56780        1.22500
C          0.75350       -2.11030        1.33380
C          2.06000       -2.38560        2.07620
C          3.34790       -2.27870        1.28010
C          2.82260       -1.09130        2.03900
O          2.10070       -0.15210        1.28740
H          1.11560        1.90400       -0.03520
H         -0.35330        1.88130       -1.02900
H         -0.47630        1.94430        0.73450
H         -0.93350       -0.39120       -0.10870
H          0.63870       -0.41900       -0.90430
H          0.19880       -0.15560        2.10340
H         -0.11430       -2.48750        1.88200
H          0.74170       -2.57200        0.33940
H          2.04500       -3.00960        2.96150
H          4.22270       -2.78990        1.66930
H          3.28110       -2.23940        0.19760
H          3.35680       -0.68150        2.89090
