11
gdb 728	9.49204	3.5053	2.60151	4.8091	47.65	-0.251	0.0018	0.2527	483.3848	0.086723	-281.476832	-281.471555	-281.470611	-281.50559	18.283
C         -0.02010        1.53270        0.04660
C         -0.00260        0.04320       -0.03940
C         -0.06670       -0.83980       -1.09380
N         -0.01060       -2.11660       -0.61930
N          0.08550       -2.08390        0.67630
N          0.09110       -0.78160        1.03440
H          0.89770        1.92380        0.49940
H         -0.10810        1.96150       -0.95360
H         -0.86540        1.89490        0.64220
H         -0.14880       -0.62970       -2.14810
H          0.16000       -0.54290        2.01090
