13
gdb 5178	7.4733	1.20659	1.07486	3.2759	62.07	-0.2164	-0.0081	0.2083	1023.7409	0.096318	-398.649298	-398.642393	-398.641449	-398.681011	24.894
O          0.34400       -0.09180       -0.15840
C          0.51700        1.06430       -0.37700
O          0.42580        2.00700        0.61110
C          0.73570        3.29840        0.27640
C          1.86100        3.86750       -0.26510
C          1.59880        5.26800       -0.34670
C          0.33890        5.49160        0.15060
N         -0.18700        4.27560        0.52520
H          0.76690        1.51780       -1.35180
H          2.76430        3.34880       -0.54370
H          2.27190        6.02210       -0.72330
H         -0.22590        6.40030        0.27730
H         -1.08950        4.11100        0.93660
