12
gdb 572	12.11067	1.99826	1.83642	1.9719	51.81	-0.2611	0.0484	0.3095	653.8855	0.094784	-269.170665	-269.164427	-269.163483	-269.200589	21.894
C          0.02820       -1.14950        0.23470
C         -0.00220        0.03650        0.04550
C         -0.01210        1.47480       -0.19890
C          1.38280        2.07740       -0.22870
C          1.61680        3.47630        0.14560
O          1.96490        2.40650        1.02800
H          0.04820       -2.19620        0.41160
H         -0.50630        1.68130       -1.15800
H         -0.59580        1.98520        0.57640
H          2.07020        1.60580       -0.93140
H          2.45390        4.02170       -0.28710
H          0.77860        4.09290        0.46850
