22
gdb 13976	4.99028	1.08381	1.01036	0.254	82.63	-0.2416	0.0882	0.3298	1276.7016	0.200619	-313.051717	-313.043118	-313.042174	-313.085038	32.607
C         -0.01620        1.59850       -0.09590
C         -0.03100        0.06870       -0.14460
C         -1.41120       -0.53140        0.16700
C         -1.42460       -2.03500        0.13570
C         -1.58300       -2.82760       -1.13540
C         -2.58670       -3.02250       -0.02980
C         -1.99890       -3.93790        1.04890
C         -0.80460       -2.94140        1.21510
H          0.97850        1.99700       -0.31910
H         -0.71630        2.02480       -0.82340
H         -0.30740        1.96670        0.89440
H          0.29160       -0.27530       -1.13530
H          0.70350       -0.32810        0.56810
H         -1.74060       -0.18000        1.15560
H         -2.14520       -0.14570       -0.55380
H         -1.93960       -2.26070       -1.99040
H         -0.88620       -3.62430       -1.39130
H         -3.64060       -2.81590       -0.17910
H         -2.61440       -3.99760        1.94930
H         -1.75210       -4.95660        0.73010
H          0.19840       -3.32830        1.00540
H         -0.79440       -2.47330        2.20330
