17
gdb 19699	4.69222	1.69865	1.5653	2.7512	66.64	-0.2343	0.0652	0.2996	852.5988	0.143777	-363.771065	-363.764342	-363.763397	-363.802106	26.414
O          0.06530        1.38770        0.17690
C          0.13930       -0.00190       -0.09660
C         -1.24360       -0.62390       -0.03070
C         -1.53100       -2.11520       -0.00420
C         -1.47560       -2.54800        1.47700
C         -1.14030       -1.29860        2.26580
N         -1.99260       -0.49180        1.29910
C         -2.67360       -1.83460        0.92670
H         -0.56440        1.49470        0.90030
H          0.53910       -0.10990       -1.11190
H          0.84470       -0.50980        0.57810
H         -1.87770       -0.12850       -0.77410
H         -1.48690       -2.84490       -0.80320
H         -1.38570       -3.59210        1.74920
H         -1.63010       -1.28180        3.24280
H         -0.10220       -0.97120        2.37620
H         -3.73770       -2.01920        0.90590
