16
gdb 18227	4.43449	1.5524	1.30622	3.1452	64.67	-0.2473	-0.0238	0.2235	928.0424	0.131021	-383.74372	-383.736714	-383.73577	-383.775442	26.008
O          0.03670       -0.07490        0.05470
C          0.09210        1.12770        0.07970
C          1.36940        1.93790        0.04440
C          1.41980        2.89080       -1.18680
C          2.22590        4.13170       -0.73210
C          1.99270        4.19010        0.76230
O          0.61700        4.02690        1.13710
C          1.49030        2.89210        1.22860
H         -0.82980        1.75060        0.12910
H          2.21430        1.24130        0.05380
H          1.85340        2.39810       -2.05900
H          0.40290        3.19220       -1.45230
H          3.29900        4.00300       -0.91750
H          1.90930        5.04330       -1.24750
H          2.57080        4.85480        1.39900
H          1.65940        2.50840        2.23120
