19
gdb 7782	3.0521	1.89508	1.24855	3.2561	73.4	-0.2524	0.025	0.2774	999.1601	0.167021	-365.097141	-365.08934	-365.088396	-365.129259	29.812
C          0.03480        1.51530        0.08820
C          0.00220        0.00390       -0.07240
C          0.76420       -0.50260       -1.29320
C          0.80550       -2.03200       -1.28830
C          1.44640       -2.51390        0.01840
C          0.84600       -1.86810        1.24580
N          0.73900       -2.50180        2.33720
O          0.52720       -0.54030        1.16030
H          1.06680        1.86890        0.17550
H         -0.42780        1.99920       -0.77710
H         -0.50850        1.81670        0.98740
H         -1.04410       -0.33070       -0.15160
H          0.27600       -0.12080       -2.19640
H          1.78450       -0.09720       -1.27830
H         -0.21480       -2.42780       -1.37390
H          1.36630       -2.41430       -2.14670
H          1.38450       -3.59580        0.14380
H          2.51320       -2.25040        0.00690
H          0.34880       -1.88510        3.05400
