15
gdb 12305	3.01112	2.2254	1.33962	6.0137	62.52	-0.2392	-0.0591	0.18	877.4563	0.120666	-399.854777	-399.847674	-399.84673	-399.886573	26.237
O          0.06710       -0.07170       -0.17690
C         -0.00270        1.12810       -0.15320
C         -1.31370        1.89280       -0.23660
C         -1.14180        3.21850       -0.98570
C         -0.07500        4.06970       -0.30260
N          1.16290        3.31620       -0.14890
C          1.30300        1.96230       -0.01000
O          2.36990        1.42610        0.19550
H         -2.06680        1.24110       -0.68620
H         -1.63590        2.09560        0.79610
H         -0.84550        3.02540       -2.02340
H         -2.08600        3.77020       -1.01380
H          0.13860        4.96570       -0.89410
H         -0.44670        4.41130        0.67610
H          2.02050        3.82970        0.00200
