14
gdb 5414	5.18958	1.63332	1.25193	3.8485	65.51	-0.2551	-0.0505	0.2046	909.4625	0.109483	-378.772082	-378.765391	-378.764447	-378.80338	24.492
O          0.39200        0.84860        0.81490
C         -0.03120        0.15340       -0.32530
C         -1.42110       -0.42550       -0.17960
N         -2.03540       -0.20070        0.98340
C         -3.26350       -0.70690        1.12510
C         -3.87810       -1.43320        0.11640
C         -3.14430       -1.60650       -1.05520
N         -1.91940       -1.10990       -1.21500
H         -0.34100        0.78610        1.44610
H         -0.03040        0.80990       -1.20960
H          0.65630       -0.67440       -0.55960
H         -3.75990       -0.52110        2.07460
H         -4.87360       -1.84320        0.23290
H         -3.55430       -2.16440       -1.89430
