18
gdb 19396	2.98342	2.15879	1.58638	1.7179	71.28	-0.249	0.0818	0.3308	871.6084	0.153491	-347.753041	-347.745705	-347.744761	-347.784261	28.767
C         -0.11960        1.60280       -0.08980
C          0.06840        0.09510        0.02010
C          1.07620       -0.62260       -0.90430
C          2.49280       -0.26210       -0.55790
C          1.76920       -1.26560        0.30330
C          0.82350       -0.52220        1.22160
C          1.00710       -0.05880        2.59840
O          0.12920       -1.15390        2.28010
H          0.83490        2.13620       -0.04210
H         -0.60210        1.86710       -1.03690
H         -0.75430        1.97830        0.72020
H         -0.90250       -0.40920       -0.03630
H          0.82250       -1.08120       -1.85190
H          3.25120       -0.67800       -1.21360
H          2.74340        0.71920       -0.16280
H          2.11130       -2.28260        0.44730
H          1.90990       -0.32850        3.14540
H          0.50910        0.84660        2.94360
