12
gdb 20510	9.40272	0.99937	0.90849	4.4589	68.4	-0.2636	-0.0566	0.207	1199.9493	0.083195	-377.459763	-377.452443	-377.451499	-377.494581	24.511
C         -0.00480        1.45870        0.01010
C          0.00230        0.00600        0.00240
C          0.01850       -1.19890       -0.00400
C          0.00380       -2.61030       -0.01130
N          1.09090       -3.35420       -0.02230
O          0.65610       -4.64400       -0.02620
N         -0.71010       -4.72070       -0.01770
C         -1.12570       -3.48850       -0.00850
H          1.01620        1.85400        0.00250
H         -0.52630        1.85450       -0.86800
H         -0.50950        1.84520        0.90210
H         -2.17620       -3.24560       -0.00030
