18
gdb 10562	3.60629	1.29675	1.08161	3.4653	69.89	-0.2468	-0.0198	0.2271	1137.1801	0.151509	-384.927489	-384.918543	-384.917599	-384.961585	31.223
C         -0.44590        1.45660       -0.24640
O         -0.36150        0.05080       -0.26810
C          0.72530       -0.42500       -1.03540
C          0.77240       -1.92510       -0.91410
C         -0.17680       -2.77100       -1.75300
C          1.27230       -2.75840       -2.09120
C          1.09340       -2.45800        0.43960
O          1.14850       -3.63330        0.71550
H          0.45910        1.91450        0.18330
H         -0.59280        1.87230       -1.25590
H         -1.30530        1.72270        0.37330
H          0.61800       -0.12820       -2.09200
H          1.66880        0.02030       -0.67140
H         -0.57200       -3.65430       -1.26510
H         -0.87110       -2.23230       -2.38770
H          1.60370       -2.21740       -2.97090
H          1.85960       -3.63070       -1.82880
H          1.29010       -1.67920        1.20840
