13
gdb 2606	3.62284	2.61353	1.77813	3.1179	50.97	-0.2628	-0.0523	0.2106	699.9619	0.099916	-381.567301	-381.560304	-381.559359	-381.598325	24.752
O          0.17130        1.33710        0.30630
C          0.07140       -0.03380       -0.00420
C         -1.36200       -0.52970       -0.04080
C         -1.68320       -1.95670        0.18120
O         -1.95920       -0.99680        1.18360
C         -2.32780        0.25200       -0.87360
O         -2.00380        1.16560       -1.59460
H         -0.25150        1.81170       -0.42010
H          0.54330       -0.27110       -0.97100
H          0.60820       -0.58240        0.77560
H         -2.55100       -2.40600       -0.30070
H         -0.85660       -2.63650        0.38500
H         -3.38610       -0.06690       -0.76270
