17
gdb 20856	5.31711	1.25612	1.09022	2.9794	71.55	-0.247	0.	0.247	1124.9894	0.141801	-363.879759	-363.871559	-363.870615	-363.91299	29.182
C          0.09540        1.35910       -0.55560
C         -0.10740        0.14680        0.36740
C         -1.45790       -0.48530        0.21260
N         -2.31690       -0.45340        1.20430
O         -3.46080       -1.10620        0.73830
C         -3.25520       -1.51470       -0.52700
C         -4.37370       -2.23830       -1.18950
C         -2.00610       -1.15300       -0.92310
H          1.09260        1.78650       -0.41550
H         -0.00590        1.08070       -1.60940
H         -0.64300        2.13770       -0.34270
H          0.66480       -0.60400        0.15970
H          0.00890        0.44550        1.41310
H         -4.63420       -3.14720       -0.63710
H         -5.27170       -1.61350       -1.23540
H         -4.09270       -2.51810       -2.20640
H         -1.54090       -1.33590       -1.87780
