14
gdb 7041	7.11733	0.89431	0.79845	5.4332	71.8	-0.2572	-0.0416	0.2156	1367.0605	0.106083	-378.728122	-378.719318	-378.718373	-378.763669	29.172
C         -0.20950        1.43450        0.00480
C         -0.19720       -0.01750       -0.05990
C         -0.21720       -1.22110       -0.11840
C         -0.19740       -2.65660       -0.18120
N         -1.25340       -3.33540       -0.38040
N          1.11410       -3.17380        0.00380
C          1.48210       -4.49460        0.00170
O          0.73980       -5.43730       -0.15980
H          0.43500        1.86950       -0.76670
H         -1.22220        1.82290       -0.14410
H          0.14770        1.78920        0.97760
H         -1.03340       -4.33260       -0.39120
H          1.84340       -2.49230        0.15110
H          2.57010       -4.60910        0.16950
