16
gdb 17514	4.62198	1.79154	1.59799	2.8632	68.81	-0.2488	-0.0293	0.2195	823.6488	0.131104	-346.559853	-346.553345	-346.552401	-346.590676	25.34
O         -0.08030       -0.04000        0.00830
C         -0.01590        1.16480        0.04070
C          1.24680        1.94730       -0.02280
C          1.50480        3.13010        0.96630
C          2.37060        3.73270       -0.13370
C          3.06800        2.56700       -0.86010
C          2.62990        1.27010       -0.18330
C          1.65190        2.95230       -1.20410
H         -0.94000        1.78480        0.11660
H          0.59910        3.72170        1.12940
H          1.95760        2.86900        1.92950
H          2.75750        4.74140       -0.19970
H          3.95080        2.74220       -1.46160
H          3.13660        0.94920        0.73320
H          2.58040        0.43820       -0.88900
H          1.16840        3.23270       -2.12840
