14
gdb 14585	18.96454	0.58553	0.57198	3.3286	76.37	-0.268	-0.0633	0.2047	1793.8614	0.103858	-345.348794	-345.339723	-345.338779	-345.384162	29.978
O         -0.10340       -0.06180        0.00350
C         -0.02140        1.14500        0.00740
C          1.21690        1.88020        0.00060
C          2.24320        2.51770       -0.00610
C          3.47000        3.29740       -0.01380
C          3.21190        4.82790       -0.00240
C          4.45360        5.58880       -0.01050
C          5.49590        6.18660       -0.01720
H         -0.92720        1.78520        0.01680
H          4.08170        3.02560        0.85440
H          4.06420        3.03570       -0.89720
H          2.60070        5.09360       -0.87230
H          2.61830        5.08350        0.88260
H          6.40820        6.73020       -0.02270
