12
gdb 552	9.56893	2.53695	2.27029	1.8509	51.95	-0.2535	0.0206	0.274	567.0194	0.095784	-269.170508	-269.164562	-269.163618	-269.200269	20.79
C         -0.26390       -1.25570       -0.24660
C         -0.08140       -0.07660       -0.09990
C          0.12160        1.35020        0.08580
C         -0.17290        1.93990        1.49360
C          1.30500        2.37270        1.46390
O          1.51780        1.73170        0.18700
H         -0.41980       -2.29760       -0.38170
H         -0.36730        1.89990       -0.72990
H         -0.91280        2.74050        1.51500
H         -0.42040        1.18940        2.24370
H          1.47690        3.45450        1.40830
H          1.94790        1.94940        2.24380
