16
gdb 20595	3.20979	1.83132	1.19327	3.7859	67.23	-0.2219	0.0271	0.249	979.8705	0.131574	-379.941033	-379.93287	-379.931925	-379.974326	28.706
C         -0.09330        1.56600        0.09850
C         -0.01120        0.07240        0.01020
C          0.04660       -0.71540       -1.12810
C          0.06830       -0.38390       -2.58440
O         -0.36420       -1.53550       -3.30050
N          0.13390       -1.99940       -0.70250
N          0.11720       -2.12110        0.63630
C          0.04030       -0.86510        1.06850
H          0.88900        2.04550        0.00400
H         -0.73230        1.98530       -0.68690
H         -0.51190        1.87580        1.06050
H         -0.58360        0.48300       -2.77460
H          1.08520       -0.09350       -2.89570
H         -0.17470       -1.39950       -4.23300
H          0.11950       -2.81420       -1.29250
H          0.01530       -0.66390        2.13050
