17
gdb 7681	4.19938	1.6003	1.52648	2.8661	70.39	-0.2548	0.0193	0.274	909.0235	0.141198	-363.840774	-363.833067	-363.832123	-363.8723	29.55
C         -0.00140        1.53880        0.08720
C          0.05380        0.02590        0.05250
C         -1.17560       -0.64320       -0.53840
C          1.32700       -0.71900       -0.17510
O          2.46280        0.00430        0.36480
C          1.94080       -0.14100        1.65510
N          2.44130        0.15610        2.76450
C          0.68570       -0.80200        1.19610
H          0.93240        1.97160        0.44890
H         -0.18920        1.93330       -0.91780
H         -0.81410        1.87870        0.73740
H         -1.35120       -0.28770       -1.55930
H         -1.07010       -1.73230       -0.57280
H         -2.06660       -0.41200        0.05500
H          1.53510       -1.47220       -0.92400
H          3.36550        0.57610        2.65130
H          0.15980       -1.60030        1.69950
