16
gdb 5748	4.76014	1.84428	1.43969	3.6513	71.08	-0.2144	0.0422	0.2566	872.1266	0.133005	-342.791166	-342.784336	-342.783392	-342.8225	25.497
C         -0.26310        1.55000        0.05980
C         -0.00330        0.04840        0.03170
C          0.68490       -0.53810       -1.27490
N          1.79230       -0.96650       -0.39910
C          3.00430       -1.52990       -0.07500
C          3.08890       -1.31980        1.29020
N          1.98260       -0.65350        1.80120
C          1.24670       -0.47510        0.73060
H          0.63220        2.11140       -0.22540
H         -1.07450        1.82100       -0.62370
H         -0.54980        1.86680        1.06670
H         -0.91310       -0.50170        0.29330
H          0.16020       -1.36440       -1.76190
H          0.97650        0.21050       -2.01700
H          3.66570       -2.00380       -0.77940
H          3.89910       -1.61790        1.93930
