15
gdb 4343	3.61083	1.95939	1.28019	1.1045	71.12	-0.2279	-0.0178	0.2101	916.0034	0.120727	-362.745829	-362.738874	-362.73793	-362.777138	26.364
C          0.01250        1.47710        0.07490
C          0.01680       -0.02600       -0.01080
C         -0.12770       -0.69710       -1.22160
C         -0.11370       -2.09350       -1.22200
C          0.04190       -2.77940       -0.03090
C          0.17920       -2.01010        1.13030
O          0.33320       -2.64440        2.31260
N          0.16850       -0.68510        1.15130
H          0.95020        1.83760        0.51020
H         -0.11580        1.93640       -0.90790
H         -0.79510        1.82000        0.72990
H         -0.24840       -0.14070       -2.14340
H         -0.22450       -2.64020       -2.15300
H          0.05990       -3.86010        0.02650
H          0.40910       -1.94470        2.97660
