14
gdb 1847	6.83669	1.97684	1.56299	3.4337	60.41	-0.2076	0.002	0.2096	763.2752	0.113831	-324.631468	-324.624768	-324.623824	-324.661894	24.669
C         -0.01480        1.49990        0.03950
C         -0.00170        0.00870       -0.00900
C         -0.04970       -0.77940       -1.09000
N         -0.01750       -2.14160       -0.74240
C          0.05610       -2.31580        0.62690
O          0.09640       -3.37300        1.21230
C          0.07050       -0.88890        1.20560
H          0.88700        1.89800        0.52260
H         -0.07180        1.92810       -0.96570
H         -0.86970        1.87950        0.61430
H         -0.10690       -0.49810       -2.13240
H         -0.04360       -2.91430       -1.38610
H          0.97940       -0.74540        1.80230
H         -0.77490       -0.76410        1.89290
