19
gdb 10655	2.68548	1.80028	1.31323	3.0056	72.92	-0.2369	-0.0219	0.215	1007.2308	0.163274	-365.046422	-365.037415	-365.036471	-365.079665	32.799
C         -0.34050        1.45330        0.10230
C          0.22680        0.02780        0.15930
C          0.76170       -0.47620       -1.16950
C          0.68270       -1.94590       -1.51080
N         -0.08210       -0.98660       -2.26950
C         -1.53220       -0.99860       -2.13510
C          1.97790        0.22010       -1.69890
O          2.65330        0.99640       -1.06970
H          0.42590        2.16130       -0.22110
H         -1.18680        1.52490       -0.58780
H         -0.69060        1.76430        1.09120
H          1.06030        0.00280        0.86970
H         -0.52800       -0.66470        0.54410
H          1.49370       -2.44630       -2.03550
H          0.16670       -2.56290       -0.77490
H         -1.89650       -1.24930       -1.12810
H         -1.93170       -0.02060       -2.41780
H         -1.93120       -1.74150       -2.83270
H          2.21880       -0.05970       -2.74830
