18
gdb 11259	5.379	1.21886	1.03205	0.817	83.79	-0.2231	-0.014	0.2091	1148.2886	0.15348	-310.662426	-310.654363	-310.653419	-310.694705	30.751
C         -0.68310        1.30700       -0.09850
C          0.16920        0.04740        0.04360
C          1.09940       -0.24130       -1.16620
C          2.29390       -0.90970       -0.54100
C          2.31650       -0.75990        0.79280
C          1.11750        0.04700        1.27030
C          3.31760       -1.22280        1.67970
C          4.14070       -1.59900        2.47610
H         -0.05230        2.19680       -0.20920
H         -1.33460        1.24920       -0.97700
H         -1.32130        1.45820        0.77860
H         -0.49850       -0.81650        0.15000
H          0.61350       -0.85630       -1.93250
H          1.40110        0.69070       -1.66970
H          3.06300       -1.41540       -1.11310
H          1.43440        1.06510        1.53770
H          0.65350       -0.37970        2.16510
H          4.87620       -1.93590        3.16350
