18
gdb 6738	5.66659	0.87746	0.77067	1.8634	75.74	-0.244	-0.0085	0.2355	1483.2045	0.152204	-381.167185	-381.157667	-381.156723	-381.202611	32.697
C          0.08410        1.31070        0.21960
C          0.09030       -0.19370        0.50330
N          0.65330       -1.09220       -0.49330
C          1.12540       -0.63020       -1.57200
N          1.66240       -1.49380       -2.52040
C          2.19920       -1.07670       -3.72520
C          2.72170       -2.20700       -4.59360
O          2.24160        0.09250       -4.04660
H          1.09690        1.70530        0.08650
H         -0.49590        1.55500       -0.67670
H         -0.36990        1.83960        1.06290
H          0.62790       -0.38500        1.44210
H         -0.93750       -0.53310        0.69120
H          1.17670        0.41230       -1.88690
H          1.64280       -2.47520       -2.28370
H          3.50420       -2.76880       -4.07270
H          1.91860       -2.90860       -4.84270
H          3.12940       -1.78420       -5.51080
