16
gdb 525	14.85379	1.31677	1.24669	0.835	62.82	-0.2579	0.0587	0.3166	950.8272	0.141225	-234.474613	-234.466965	-234.466021	-234.506066	26.865
C         -0.04480        1.56160       -0.03340
C          0.00470        0.03200        0.00660
C          0.73890       -0.50910        1.23680
C          0.78500       -2.05000        1.27050
C          1.48130       -2.57780        2.43750
C          2.06120       -2.98610        3.40810
H          0.96350        1.98980       -0.05060
H         -0.57440        1.92080       -0.92120
H         -0.55840        1.96390        0.84680
H         -1.01750       -0.36930       -0.01160
H          0.49350       -0.34370       -0.90230
H          1.76460       -0.12180        1.26030
H          0.25320       -0.14750        2.15110
H         -0.23920       -2.44610        1.24770
H          1.27100       -2.42040        0.35790
H          2.57150       -3.36000        4.26040
