12
gdb 5648	5.53283	2.20975	1.57908	3.4901	61.74	-0.199	-0.0097	0.1893	722.028	0.087572	-377.547085	-377.541632	-377.540687	-377.576374	21.566
N         -0.02960        1.38160        0.01000
C          1.29540        1.79260       -0.00040
N          2.17570        0.83300       -0.01430
C          1.40220       -0.32440       -0.01330
C          1.47810       -1.68770       -0.02170
O          0.21280       -2.19240       -0.01240
C         -0.69640       -1.16450        0.00220
C          0.00480       -0.00040        0.00210
H         -0.83380        1.98290        0.02270
H          1.53630        2.84760        0.00320
H          2.27520       -2.40990       -0.03350
H         -1.73240       -1.45100        0.01060
