17
gdb 11549	4.16505	1.26441	1.07553	2.1318	65.15	-0.2472	0.0086	0.2559	1119.3943	0.141791	-401.001286	-400.992658	-400.991714	-401.035674	29.636
C         -0.24150        0.87010        0.89610
O         -0.50730       -0.46720        0.45080
C         -1.37860       -0.57100       -0.57830
O         -1.88450        0.37540       -1.12340
C         -1.64600       -2.02980       -0.89800
C         -2.71520       -2.59320        0.02480
C         -2.59680       -3.97710        0.54590
N         -2.41610       -2.82420        1.44430
H          0.47990        0.77560        1.70770
H          0.17250        1.47030        0.08240
H         -1.15880        1.34530        1.25260
H         -1.97600       -2.09030       -1.93820
H         -0.71930       -2.60050       -0.78350
H         -3.70880       -2.18430       -0.14610
H         -3.48780       -4.56950        0.73360
H         -1.72450       -4.55490        0.24960
H         -1.42720       -2.65580        1.61440
