14
gdb 265	8.4155	2.08732	1.72634	1.9371	50.66	-0.2654	0.0196	0.285	719.0142	0.117704	-307.614861	-307.607387	-307.606443	-307.647075	24.457
C          0.17340        1.48940       -0.00120
C         -0.04380       -0.01070        0.05120
O          0.74430       -0.52780        1.14160
C          0.67190       -1.86090        1.33770
C          1.53810       -2.27630        2.50340
O          0.00090       -2.60020        0.66270
H          1.22810        1.72600       -0.16810
H         -0.41040        1.92090       -0.81970
H         -0.14100        1.96280        0.93320
H         -1.09440       -0.26760        0.21960
H          0.26670       -0.50290       -0.87590
H          1.46500       -3.35400        2.64340
H          2.57810       -1.99300        2.31820
H          1.21800       -1.75890        3.41220
