22
gdb 10521	2.87911	1.34193	1.06742	0.9995	78.54	-0.2448	0.083	0.3277	1229.7404	0.198292	-350.188404	-350.178704	-350.17776	-350.223009	35.397
C          2.16450        1.56130       -0.92540
C          2.10920        0.03270       -0.97510
C          0.77060       -0.50240       -1.50050
C          0.70000       -2.01860       -1.51100
C         -0.20450       -2.73420       -2.48550
C          1.30310       -2.78310       -2.65060
O          0.89110       -2.63730       -0.26320
C         -0.19200       -2.49700        0.63470
H          2.02060        1.99850       -1.92020
H          1.38210        1.96650       -0.27340
H          3.12830        1.91360       -0.54460
H          2.91900       -0.34830       -1.60980
H          2.28850       -0.38250        0.02280
H         -0.05070       -0.09490       -0.89520
H          0.59720       -0.13870       -2.52090
H         -0.68920       -3.63990       -2.13850
H         -0.78800       -2.14720       -3.18680
H          1.75610       -2.22640       -3.46390
H          1.79800       -3.71450       -2.40170
H         -0.33300       -1.45790        0.96410
H         -1.13430       -2.85050        0.19250
H          0.04170       -3.10850        1.50980
