13
gdb 18825	4.47884	2.32636	1.9375	5.1997	56.01	-0.2388	-0.0009	0.2379	681.6807	0.098015	-398.570261	-398.564911	-398.563967	-398.599601	21.594
O          0.00240        0.02070        0.17930
C          0.02760        1.19910        0.00110
O         -1.10290        1.97900       -0.06040
C         -0.71920        3.29010       -0.43190
C          0.35590        3.99830        0.36840
N          1.07530        2.98450        1.16090
C          1.20810        2.16540       -0.11690
C          0.67520        3.34020       -0.97350
H         -1.52950        3.85650       -0.86960
H          0.27900        5.03390        0.67820
H          1.99970        3.34790        1.37930
H          2.17130        1.69800       -0.29580
H          0.98970        3.68930       -1.94850
