15
gdb 1800	3.77074	2.61256	1.80933	1.7933	57.34	-0.2466	-0.0235	0.2232	726.1598	0.122083	-345.658421	-345.650583	-345.649638	-345.690561	27.503
C          0.18790        1.12400        0.79140
C         -0.10650        0.14220       -0.32380
O          0.59200        0.04250       -1.30760
C         -1.35120       -0.71420       -0.19630
C         -1.95650       -1.19120       -1.49420
C         -1.52610       -1.50180        1.04500
O         -2.26620       -0.30790        0.83530
H          1.15400        1.59410        0.60580
H         -0.59870        1.88520        0.82210
H          0.18690        0.64280        1.77370
H         -1.21090       -1.73990       -2.07350
H         -2.81700       -1.83510       -1.30010
H         -2.28600       -0.34080       -2.09880
H         -2.09490       -2.42900        0.98780
H         -0.77920       -1.46460        1.83630
