16
gdb 4842	4.42629	1.49628	1.1516	1.9716	69.81	-0.1735	0.0408	0.2143	1025.5811	0.131335	-379.937173	-379.929013	-379.928069	-379.970067	29.561
C         -0.18630        1.44180        0.08920
N         -0.12380        0.06310       -0.38960
C         -1.18940       -0.77860       -0.11780
C         -1.27100       -2.10810        0.18160
C         -2.67430       -2.41270        0.21720
C         -3.34730       -1.26520       -0.03680
N         -4.70680       -0.96380       -0.09310
O         -2.42470       -0.23830       -0.24970
H          0.70310        1.97340       -0.25740
H         -1.06340        1.93190       -0.33730
H         -0.24500        1.52620        1.18540
H          0.75480       -0.38870       -0.17870
H         -0.44530       -2.78130        0.34840
H         -3.13250       -3.36870        0.41580
H         -4.96540       -0.51110       -0.96440
H         -5.00780       -0.36260        0.66860
