14
gdb 18984	4.50429	2.34004	1.91069	0.9945	55.73	-0.246	0.0606	0.3067	689.5261	0.109028	-419.595377	-419.589981	-419.589037	-419.624672	21.938
C          0.02360        1.40300        0.07820
O          1.34520        1.89120        0.05740
C          2.11120        1.21180       -0.90330
C          1.38150        0.40880       -2.03180
O          2.56480       -0.45230       -2.12930
C          2.36730       -0.30410       -0.67770
C          0.84550       -0.52820       -0.89800
O         -0.03390       -0.00480        0.06330
H         -0.44380        1.74580        1.00250
H         -0.52090        1.79630       -0.79740
H          2.96930        1.81470       -1.20020
H          0.92630        0.73700       -2.96600
H          3.06130       -0.80690       -0.00580
H          0.53540       -1.53150       -1.19000
