17
gdb 12793	3.66247	2.09519	1.63611	2.1869	68.41	-0.2305	0.0185	0.249	827.5706	0.14375	-363.864793	-363.857741	-363.856797	-363.895699	27.298
C         -0.20150        1.52640        0.05670
C          0.04340        0.03470       -0.00340
C         -0.71100       -0.87540        0.93030
C          0.78310       -0.65870        1.11810
N          1.67450       -1.74080        0.82650
C          1.64240       -2.22620       -0.34100
O          0.88750       -1.83210       -1.39840
C          0.40260       -0.47960       -1.38280
H          0.66490        2.08880       -0.31050
H         -1.06950        1.81460       -0.54890
H         -0.39640        1.84720        1.08430
H         -1.38630       -0.42050        1.64730
H         -1.01850       -1.85350        0.57560
H          1.09330       -0.06800        1.97410
H          2.24820       -3.08940       -0.60790
H         -0.45720       -0.47120       -2.06080
H          1.18120        0.16490       -1.81460
