14
gdb 1478	4.7756	1.52395	1.23069	4.2798	54.15	-0.2769	0.0295	0.3064	915.5776	0.112155	-361.717032	-361.709042	-361.708097	-361.74948	27.676
O          0.32080        0.54870        0.90680
C         -0.11720        0.27590       -0.41260
C         -1.48680       -0.41950       -0.45610
O         -1.91590       -0.61250       -1.78750
C         -1.45110       -1.72980        0.35800
C         -2.76110       -2.35880        0.48670
N         -3.80090       -2.85050        0.59560
H         -0.19380        1.28730        1.24800
H         -0.16780        1.18010       -1.03380
H          0.64110       -0.38440       -0.85400
H         -2.23590        0.24590       -0.00990
H         -1.30250       -1.21400       -2.22530
H         -0.76030       -2.43790       -0.11890
H         -1.04430       -1.51410        1.35120
