20
gdb 6176	3.2854	1.35954	1.1966	1.4854	71.62	-0.2453	0.075	0.3204	1106.8779	0.173999	-386.127432	-386.117778	-386.116834	-386.161257	35.998
C         -0.13040        1.52320        0.06630
C          0.05510        0.01210       -0.09180
O          0.70520       -0.30250       -1.32420
C          0.78130       -0.59110        1.09240
C          0.03330       -1.18860        2.27530
C          0.83850       -2.06760        1.34480
C          0.16360       -3.06900        0.43560
O          2.10120       -2.48520        1.80790
H          0.84170        2.02400        0.15270
H         -0.65000        1.93470       -0.80310
H         -0.70730        1.75710        0.96690
H         -0.93320       -0.45260       -0.18560
H          1.61860       -0.00320       -1.25570
H          1.70380       -0.07630        1.35650
H          0.43340       -1.00690        3.26640
H         -1.05040       -1.23380        2.21930
H         -0.81550       -2.72080        0.09830
H          0.78040       -3.25980       -0.44670
H          0.01040       -4.01850        0.96400
H          1.96600       -3.25850        2.36730
