16
gdb 1178	4.02273	1.86096	1.73085	3.3517	60.86	-0.2984	0.0188	0.3172	810.387	0.134607	-325.79684	-325.788454	-325.787509	-325.82893	30.161
C         -0.00330        1.55510        0.14150
C         -0.03730        0.03420       -0.02550
C          0.70000       -0.47320       -1.29030
C          0.10310        0.06700       -2.59520
O          2.06660       -0.07350       -1.29170
C          0.62670       -1.95710       -1.29850
N          0.58490       -3.11190       -1.27320
H          1.02210        1.92950        0.08560
H         -0.59210        2.06380       -0.62690
H         -0.41870        1.83570        1.11330
H          0.42950       -0.44550        0.84420
H         -1.07010       -0.33090       -0.05480
H          0.21820        1.15210       -2.62380
H          0.63100       -0.35970       -3.45020
H         -0.95700       -0.18600       -2.66950
H          2.49470       -0.44750       -0.51280
