12
gdb 1236	8.33036	1.09416	1.00262	4.2762	64.11	-0.2903	-0.0509	0.2394	1082.9616	0.088846	-323.360471	-323.352878	-323.351934	-323.392392	26.035
C          0.00790        1.55390        0.00710
C          0.00300        0.01900        0.05050
O          0.72380       -0.49540        1.15950
C         -1.36690       -0.50960        0.01330
C         -2.49890       -0.93300        0.02030
C         -3.77740       -1.41240        0.02420
N         -4.86600       -1.81760        0.02810
H          1.04190        1.90630        0.02800
H         -0.47880        1.92160       -0.90040
H         -0.52470        1.96480        0.87070
H          0.53620       -0.36310       -0.82850
H          0.27760       -0.20900        1.96520
