15
gdb 21138	3.5265	1.96232	1.28107	1.0141	65.95	-0.2083	-0.0131	0.1952	922.2714	0.118629	-392.127687	-392.119274	-392.11833	-392.161142	28.199
C         -0.10020        1.41190        0.01420
N         -0.09080       -0.03990        0.00880
C          0.48990       -0.59990       -0.97530
N          1.14980       -0.13020       -2.10160
N          1.61360       -1.15260       -2.88310
N          1.28870       -2.24120       -2.32210
N          0.61410       -1.96590       -1.17660
C          0.10750       -2.99850       -0.30650
H          0.91340        1.84680        0.04020
H         -0.61840        1.84020       -0.86050
H         -0.62530        1.76660        0.90460
H          1.30880        0.82130       -2.37880
H          0.37020       -3.96120       -0.74440
H          0.55040       -2.90420        0.68910
H         -0.97870       -2.91230       -0.21060
