18
gdb 10689	2.33095	1.93568	1.50123	1.3206	73.95	-0.25	0.0421	0.2921	957.6639	0.151173	-347.760302	-347.751349	-347.750405	-347.793329	33.751
C          0.24590        1.41930        0.33120
C         -0.07950       -0.03100       -0.03060
O         -1.47520       -0.22740       -0.19810
C          0.69490       -0.51720       -1.26140
C          2.11700       -1.01850       -1.06580
C          1.01840       -1.99870       -1.35680
C          0.36400        0.17770       -2.47720
C          0.03380        0.77530       -3.46930
H          1.30880        1.53970        0.56420
H          0.00590        2.08690       -0.50300
H         -0.34190        1.72460        1.20070
H          0.19820       -0.68210        0.80710
H         -1.73410        0.24700       -0.99780
H          2.83720       -0.80190       -1.84560
H          2.51470       -0.97330       -0.05720
H          0.65360       -2.62710       -0.55190
H          0.98600       -2.45460       -2.33900
H         -0.23350        1.29580       -4.35550
