18
gdb 11512	5.00552	1.0406	0.9164	2.9559	72.65	-0.265	0.0297	0.2947	1251.6134	0.154294	-343.978027	-343.969312	-343.968367	-344.011956	31.448
N         -0.25700        1.53670       -0.16090
C         -0.03930        0.09650       -0.01510
C         -1.36700       -0.65760        0.21930
C         -2.03980       -0.29880        1.52550
C         -3.02390        0.83620        1.61580
C         -3.50930       -0.58740        1.71780
C          0.68010       -0.49450       -1.16720
N          1.23610       -0.91540       -2.09000
H          0.63260        2.01490       -0.26890
H         -0.78490        1.71860       -1.01030
H          0.59640       -0.05050        0.86710
H         -2.04060       -0.45340       -0.62300
H         -1.15410       -1.73270        0.18840
H         -1.41180       -0.45230        2.40020
H         -3.02020        1.44920        2.50990
H         -3.24380        1.38570        0.70730
H         -4.05790       -0.99920        0.87660
H         -3.83840       -0.95730        2.68230
