20
gdb 8512	4.13444	1.79673	1.5692	0.2684	79.13	-0.2364	0.0947	0.3311	917.1513	0.177106	-311.833634	-311.826077	-311.825133	-311.864654	30.549
C         -0.08090        1.47490        0.00580
C          0.03410       -0.02020       -0.00880
C          0.93860       -0.87380       -0.89740
C          0.07130       -2.09040       -0.45900
C         -0.07840       -3.30270       -1.33880
C          0.40410       -2.22560        1.05730
C         -0.29180       -0.87920        1.22670
C         -1.06820       -1.05320       -0.06010
H          0.83020        1.94310        0.39770
H         -0.25090        1.87230       -1.00160
H         -0.91590        1.80120        0.63560
H          0.78770       -0.63390       -1.95570
H          2.01440       -0.91600       -0.68200
H          0.87880       -3.82870       -1.44160
H         -0.80340       -4.01170       -0.92370
H         -0.41550       -3.02860       -2.34480
H         -0.17110       -3.03270        1.52240
H          1.46140       -2.32180        1.33500
H         -0.63450       -0.41310        2.14250
H         -2.12320       -0.98050       -0.28550
