14
gdb 20960	7.80965	1.19947	1.05347	0.5683	59.72	-0.2551	-0.0253	0.2299	1073.9789	0.108519	-412.021118	-412.013871	-412.012926	-412.053438	25.172
C          0.01710        1.47550       -0.05370
C          0.00550       -0.03900       -0.00220
O          0.67850       -0.51290       -1.18600
C          0.76840       -1.82750       -1.31900
N          1.36770       -2.38080       -2.37040
N          1.21330       -3.66880       -2.07040
N          0.57970       -3.91620       -0.94260
N          0.28230       -2.74020       -0.43860
H          1.04200        1.85590       -0.07330
H         -0.50320        1.83810       -0.94440
H         -0.48590        1.87800        0.83020
H          0.52590       -0.42230        0.88210
H         -1.01370       -0.44000        0.01390
H          1.55750       -4.40690       -2.66570
