13
gdb 5441	3.77157	1.90088	1.26563	1.5496	70.03	-0.1882	0.0163	0.2044	889.4459	0.09554	-361.461077	-361.453828	-361.452884	-361.492236	27.604
N          0.06510        1.34300        0.18210
C         -0.03990       -0.02210        0.06090
C         -1.13160       -0.86100        0.02200
C         -0.57400       -2.19650       -0.01760
C          0.76800       -2.05990       -0.01050
O          1.10910       -0.72150        0.04180
C         -2.47950       -0.45210        0.01470
C         -3.62650       -0.07760        0.00090
H          0.86880        1.74290       -0.28300
H         -0.79470        1.82290       -0.04570
H         -1.13300       -3.11760       -0.05490
H          1.59770       -2.74410       -0.03650
H         -4.63880        0.24080        0.00050
