20
gdb 16902	3.74727	1.79682	1.41582	1.2328	74.41	-0.2437	0.0828	0.3265	949.03	0.179063	-349.005457	-348.998033	-348.997089	-349.03685	29.486
C          0.07220        1.53120        0.07170
C          0.01830        0.01250        0.00710
C          0.64820       -0.55450       -1.27490
C          0.97310       -2.04260       -1.15810
C          2.22190       -2.47670       -0.42420
C          0.87280       -2.71430        0.19610
C          0.43600       -1.86310        1.37140
O          0.69010       -0.48570        1.16190
H          1.11260        1.87140        0.08270
H         -0.42620        1.97170       -0.79740
H         -0.41750        1.89630        0.97840
H         -1.03480       -0.31720        0.05430
H         -0.04560       -0.38860       -2.10670
H          1.55800        0.01250       -1.50970
H          0.69580       -2.64530       -2.01690
H          2.77650       -3.32880       -0.80160
H          2.83360       -1.69090        0.00840
H          0.50550       -3.73630        0.22230
H         -0.64050       -2.01920        1.56150
H          0.97910       -2.13710        2.28270
