15
gdb 12210	2.71668	1.94719	1.76038	3.9708	60.86	-0.2728	0.0154	0.2883	825.7288	0.118826	-399.795362	-399.787712	-399.786768	-399.827218	28.472
O          0.05770        1.33340       -0.29020
C          0.06470       -0.06790       -0.06800
C          0.25250       -0.49510        1.40650
C         -1.30550       -0.54090        1.57970
C         -1.84050        0.70090        2.10750
N         -2.22210        1.72410        2.49130
C         -1.39160       -0.61940       -0.00840
O         -2.36220        0.08850       -0.69070
H         -0.17100        1.79290        0.52690
H          0.73310       -0.49730       -0.81670
H          0.68620       -1.49320        1.49320
H          0.80420        0.19120        2.05150
H         -1.71970       -1.38910        2.12750
H         -1.44650       -1.67350       -0.29640
H         -2.00790        0.98310       -0.80840
