13
gdb 12156	3.5771	1.57417	1.21956	3.9422	59.21	-0.2974	-0.0194	0.278	948.23	0.094979	-398.635094	-398.627659	-398.626715	-398.667217	26.012
C         -0.19650        1.46260       -0.05750
C          0.02880       -0.03910        0.04860
C          0.91180       -0.74190       -1.02140
O          1.84720       -1.16990        0.01610
C          1.12970       -0.51640        1.00140
O          1.40500       -0.41800        2.14890
C          0.32530       -1.86470       -1.74200
N         -0.16600       -2.73330       -2.32360
H          0.73870        1.99450       -0.25700
H         -0.90520        1.69420       -0.85740
H         -0.60610        1.84140        0.88260
H         -0.90810       -0.57280        0.22810
H          1.40700       -0.06180       -1.71960
