17
gdb 20810	5.65542	1.22177	1.09365	2.1794	71.66	-0.1961	0.0354	0.2315	1113.231	0.144185	-360.073372	-360.065187	-360.064243	-360.106384	30.111
C         -0.19960        1.54060        0.05240
C          0.03210        0.01940       -0.00510
C          0.84450       -0.50210        1.13940
C          2.19330       -0.78090        1.25610
C          2.36540       -1.20580        2.59770
N          3.53890       -1.67250        3.19420
N          1.21970       -1.19070        3.27170
N          0.30900       -0.76360        2.35630
H          0.75280        2.07840        0.04200
H         -0.79330        1.87630       -0.80350
H         -0.73070        1.82510        0.96600
H         -0.93590       -0.49690       -0.03410
H          0.54310       -0.23800       -0.93810
H          2.93970       -0.70670        0.48140
H          4.35510       -1.13260        2.93960
H          3.44610       -1.71370        4.20150
H         -0.65420       -0.68760        2.63260
