20
gdb 12571	3.24365	1.6949	1.23438	1.708	70.88	-0.2442	0.0786	0.3228	1011.709	0.178811	-386.142331	-386.134388	-386.133444	-386.174314	30.713
O         -0.41120        1.51130       -0.49190
C         -0.03940        0.20430       -0.06310
C         -1.34770       -0.55560        0.18130
C         -1.13730       -1.88240        0.92670
C         -0.73510       -3.06740        0.03050
O          0.07440       -2.74140       -1.08510
C          1.20780       -1.93170       -0.82770
C          0.89850       -0.45400       -1.08260
H          0.39160        1.98990       -0.72190
H          0.49010        0.26860        0.90510
H         -1.98670        0.10410        0.77710
H         -1.86070       -0.71850       -0.77330
H         -0.38750       -1.73140        1.71350
H         -2.05710       -2.16930        1.44900
H         -0.24640       -3.84130        0.64580
H         -1.63020       -3.52040       -0.40920
H          1.59350       -2.09220        0.19070
H          1.98910       -2.26120       -1.52220
H          0.44240       -0.37140       -2.07620
H          1.84440        0.10670       -1.11110
