15
gdb 2538	3.28845	2.17025	1.37727	1.9971	59.5	-0.262	0.0272	0.2891	859.9372	0.122623	-345.600227	-345.592004	-345.591059	-345.632634	28.896
C         -0.05660        1.33180       -0.02750
O          0.26340       -0.04270        0.06560
C          0.73910       -0.61480       -1.14720
C          1.29440       -1.99290       -0.75360
O          2.30230       -1.86240        0.22070
C         -0.30440       -0.71810       -2.16990
C         -1.16270       -0.82870       -3.00420
H          0.81780        1.92770       -0.32910
H         -0.86740        1.50750       -0.74630
H         -0.38130        1.65100        0.96530
H          1.57230       -0.00510       -1.53420
H          0.45660       -2.61570       -0.40590
H          1.73780       -2.47180       -1.63060
H          1.92090       -1.31450        0.91770
H         -1.91730       -0.92070       -3.74630
