17
gdb 7868	3.40775	1.72115	1.16833	3.7689	72.44	-0.2024	0.0074	0.2098	1015.9488	0.141516	-363.928472	-363.92014	-363.919196	-363.960978	30.565
C          0.08580        1.52510        0.02450
C          0.00430        0.03420       -0.00880
C         -1.08460       -0.75140        0.03990
C         -2.53540       -0.41930        0.14020
N         -0.71120       -2.11400       -0.01900
C          0.65530       -2.28100       -0.10960
O          1.24550       -3.33510       -0.17390
C          1.22330       -0.85380       -0.10910
H          0.68210        1.87650        0.87700
H          0.57030        1.92180       -0.87750
H         -0.90060        1.99060        0.09930
H         -3.09180       -0.81070       -0.72060
H         -2.98120       -0.86010        1.04050
H         -2.69160        0.65950        0.18030
H         -1.35000       -2.89180        0.00180
H          1.80910       -0.69230       -1.02250
H          1.92090       -0.73710        0.72950
