14
gdb 16617	3.51733	2.28737	1.54096	0.6853	64.09	-0.2286	-0.0551	0.1734	795.159	0.108919	-378.744876	-378.73824	-378.737296	-378.775344	25.936
N          0.00910        1.30570       -0.15570
C         -0.06270       -0.04120       -0.03440
N         -1.12170       -0.76930       -0.00850
C         -0.70300       -2.16160        0.03540
C         -0.05390       -2.67300       -1.20730
C          0.80840       -2.24970       -0.00140
C          1.24200       -0.82660        0.01860
O          2.34180       -0.33520        0.10850
H          0.90070        1.72320        0.06110
H         -0.82080        1.85480       -0.00510
H         -1.30140       -2.81790        0.65570
H         -0.05950       -3.73870       -1.41260
H         -0.07130       -2.03450       -2.08460
H          1.40410       -3.00040        0.49930
