18
gdb 16230	2.92057	2.24073	1.49375	1.6713	72.59	-0.2479	0.0145	0.2624	881.2233	0.154767	-347.799129	-347.791769	-347.790825	-347.83103	28.931
O          0.26100        1.18430       -0.51360
C          0.07960       -0.14570       -0.03120
C          0.57350       -0.33520        1.38240
C         -0.35940       -0.83490        2.19070
C         -1.65840       -1.11540        1.47910
C         -1.39220       -0.61860        0.05040
C         -2.45110        0.12400       -0.72740
C         -2.04860       -1.26740       -1.14000
H         -0.18000        1.77220        0.11070
H          0.65040       -0.75410       -0.74380
H          1.58500       -0.06570        1.66480
H         -0.22330       -1.04620        3.24630
H         -1.89560       -2.18790        1.50210
H         -2.50520       -0.60650        1.95900
H         -3.42110        0.26060       -0.25980
H         -2.12090        0.95070       -1.34610
H         -1.45940       -1.37740       -2.04540
H         -2.74450       -2.08080       -0.95880
