13
gdb 18429	3.35417	2.07149	1.73804	4.5462	58.57	-0.2495	-0.0486	0.2009	765.7881	0.09533	-398.591446	-398.584707	-398.583763	-398.622752	24.498
O         -0.81770        1.21820       -0.09640
C          0.29310        0.98430        0.31230
C          1.45610        1.92470        0.23340
C          1.36080        3.35160       -0.20270
N          0.09400        3.98080        0.18820
C          0.31240        3.69360        1.55330
O         -0.35280        3.88230        2.52770
C          1.67600        3.07290        1.25360
H          0.53170        0.00990        0.79170
H          2.39590        1.42200        0.00820
H          1.99740        3.80410       -0.95160
H         -0.77870        3.71340       -0.25400
H          2.59960        3.16410        1.80720
