13
gdb 20449	6.3101	1.41677	1.25173	3.8445	59.87	-0.2578	-0.0371	0.2207	919.0853	0.096615	-394.725415	-394.71898	-394.718036	-394.756728	23.284
C          0.99170        1.18790        0.11890
N          0.51840        0.11410       -0.76280
C         -0.33920        0.55080        0.34840
C         -0.55520       -0.45030        1.40800
C         -0.07550       -1.71460        1.55040
O         -0.54680       -2.23160        2.68200
N         -1.37430       -1.22370        3.26820
N         -1.35200       -0.22050        2.51030
H          1.82650        0.91900        0.75910
H          1.00540        2.20910       -0.25230
H          0.17840        0.49360       -1.64150
H         -1.20980        1.16370        0.12910
H          0.56890       -2.32590        0.94240
