14
gdb 5514	3.45935	1.94073	1.25309	5.0541	67.66	-0.2446	-0.0547	0.1899	905.2506	0.108508	-378.769728	-378.762532	-378.761588	-378.801426	25.304
C         -0.02630        1.44520        0.03630
N         -0.00910       -0.00720        0.02500
C         -0.02930       -0.79320       -1.07730
N         -0.00620       -2.08460       -0.79040
C          0.03100       -2.13900        0.56720
C          0.03050       -0.86720        1.11860
C          0.06250       -0.44080        2.50500
O          0.09660       -1.20050        3.45030
H          0.87170        1.84370        0.51640
H         -0.05740        1.79980       -0.99530
H         -0.90740        1.82230        0.56270
H         -0.06110       -0.37120       -2.07210
H          0.05670       -3.07270        1.10790
H          0.05310        0.66170        2.66290
