17
gdb 4819	6.55911	1.26017	1.07155	1.5727	72.94	-0.1812	0.0464	0.2277	1105.6305	0.142279	-363.880521	-363.872228	-363.871284	-363.913883	29.569
C         -0.04430        1.39470        0.03950
O         -0.07950       -0.01450       -0.03540
C          0.58120       -0.56840       -1.08900
C          0.64040       -1.92970       -1.30380
N          1.37040       -2.13640       -2.45490
C          1.72150       -3.43300       -2.98930
C          1.77260       -0.93230       -2.95700
C          1.30000        0.07260       -2.13700
H          0.98410        1.77030        0.13290
H         -0.50890        1.85950       -0.84110
H         -0.60940        1.67420        0.93100
H          0.22600       -2.74750       -0.73890
H          0.83630       -4.07350       -3.05230
H          2.12810       -3.30770       -3.99480
H          2.47210       -3.93690       -2.36900
H          2.36420       -0.88230       -3.85750
H          1.44520        1.12980       -2.28610
