19
gdb 13439	3.51398	1.26978	1.14581	2.5796	72.49	-0.2226	-0.0234	0.1993	1118.4932	0.162727	-365.037357	-365.027974	-365.02703	-365.072229	32.737
C         -0.03680        1.54160        0.69430
C          0.13220        0.06870        0.38550
C          0.26080       -0.47420       -1.00440
C          0.23720        0.40680       -2.24420
C          0.98200       -0.23710       -3.39760
O          1.81850        0.31160       -4.06630
N          1.38850       -0.53000       -0.07290
C          2.57390        0.29050       -0.27960
H          0.41800        2.20070       -0.04690
H         -1.10240        1.78870        0.74820
H          0.40400        1.78100        1.66820
H         -0.38700       -0.56690        1.10400
H         -0.17270       -1.45790       -1.19480
H         -0.81120        0.51840       -2.55990
H          0.64500        1.40610       -2.09010
H          0.69160       -1.29560       -3.59630
H          2.39890        1.30510       -0.66290
H          3.10370        0.37990        0.67410
H          3.23720       -0.22100       -0.98400
