20
gdb 11455	5.18814	1.19767	1.04957	1.7042	78.6	-0.2247	0.0242	0.2489	1197.6177	0.176163	-349.023237	-349.014418	-349.013474	-349.056769	32.027
C         -0.16740        1.51810        0.05020
C          0.03180        0.00130        0.00980
C          0.88640       -0.51580        1.17410
O          0.26200       -0.19570        2.42670
C          0.07940       -1.37170        3.20260
C          0.58930       -2.51000        2.35450
C          0.54180       -3.92920        2.81850
C          1.05370       -2.00980        1.21260
H          0.79080        2.04480       -0.02620
H         -0.80130        1.85680       -0.77490
H         -0.63810        1.81540        0.99090
H         -0.93730       -0.51110        0.04110
H          0.51760       -0.29220       -0.93010
H          1.86580       -0.00560        1.13510
H          0.63300       -1.28950        4.15350
H         -0.98490       -1.49080        3.46420
H          1.10540       -4.06060        3.75100
H         -0.48820       -4.24270        3.03040
H          0.95740       -4.61070        2.07210
H          1.49350       -2.57160        0.39720
