16
gdb 5129	3.37416	2.0396	1.29177	3.0628	67.85	-0.1878	0.0356	0.2234	920.9798	0.131044	-379.967792	-379.95963	-379.958685	-380.000198	29.29
C         -0.03280        1.43860        0.00400
N          0.00850       -0.00640        0.03530
C          0.01400       -0.83660       -1.03830
N          0.05680       -2.10740       -0.68510
C          0.08020       -2.08490        0.67730
O          0.12590       -3.22650        1.40680
C          0.05190       -0.80570        1.17720
C          0.06130       -0.28420        2.57140
H          0.85480        1.87010        0.47840
H         -0.06580        1.76810       -1.03620
H         -0.92100        1.81970        0.51850
H         -0.01460       -0.46220       -2.05080
H          0.13550       -3.94950        0.76860
H          0.93150        0.35120        2.78220
H         -0.83540        0.30160        2.81260
H          0.09690       -1.13000        3.26190
