15
gdb 8661	2.56043	1.80675	1.40494	3.4694	62.26	-0.2802	-0.0593	0.2209	937.8406	0.114922	-399.8028	-399.793602	-399.792658	-399.836825	31.19
C          0.05140        1.42920        0.14090
O          0.07120        0.01280        0.01930
C          0.61950       -0.51130       -1.17130
C          2.11170       -0.22740       -1.37190
C          0.36510       -2.03940       -1.03020
O          1.09320       -2.88020       -1.47050
C         -0.16150       -0.06110       -2.35020
N         -0.78720        0.28720       -3.25780
H          1.06270        1.84930        0.20000
H         -0.48570        1.89510       -0.69490
H         -0.47690        1.64410        1.07120
H          2.64380       -0.47490       -0.44990
H          2.49270       -0.86020       -2.17550
H          2.29150        0.81830       -1.62700
H         -0.56070       -2.25980       -0.46290
