22
gdb 18361	3.04942	2.03338	1.48882	0.1762	80.5	-0.2767	0.0782	0.3548	952.5504	0.202889	-313.083105	-313.075489	-313.074545	-313.114753	30.512
C         -0.12510        1.55580       -0.06760
C          0.11400        0.04640       -0.05420
C          1.04320       -0.48230       -1.16670
C          1.36970       -1.91980       -0.71860
C          1.49010       -1.83800        0.81480
C          2.81730       -1.23710        1.36210
C          2.08210        0.08290        1.72460
C          0.73180       -0.52750        1.23650
H          0.80990        2.11450        0.04570
H         -0.58360        1.87240       -1.01070
H         -0.79450        1.86040        0.74430
H         -0.85920       -0.45050       -0.18250
H          0.58470       -0.43560       -2.15930
H          1.95750        0.12450       -1.20970
H          0.54010       -2.58390       -0.99000
H          2.27190       -2.32450       -1.18940
H          1.18330       -2.76590        1.30230
H          3.22390       -1.77200        2.22410
H          3.61640       -1.13980        0.62030
H          2.10190        0.34180        2.78600
H          2.42030        0.95900        1.16450
H         -0.01070       -0.63010        2.03180
