16
gdb 1469	6.755	1.28013	1.15632	4.9239	61.15	-0.2819	0.0339	0.3158	993.6555	0.135494	-325.793166	-325.784794	-325.78385	-325.825959	28.99
C         -0.04140        1.57460        0.05110
C         -0.03320        0.04400        0.00090
C         -1.45150       -0.53050        0.01660
O         -2.07090       -0.12810        1.22510
C          0.71420       -0.49400       -1.24110
C          2.12200       -0.10480       -1.27180
N          3.23500        0.20600       -1.28310
H          0.97550        1.97410        0.09520
H         -0.53050        1.99120       -0.83820
H         -0.59090        1.91660        0.92980
H          0.47770       -0.33630        0.89370
H         -2.00700       -0.16090       -0.86240
H         -1.40740       -1.62940       -0.06040
H         -2.98220       -0.43430        1.21770
H          0.66260       -1.58870       -1.27390
H          0.23540       -0.12690       -2.15770
