18
gdb 17721	4.38031	2.45982	2.00578	0.2052	75.39	-0.2643	0.1014	0.3658	733.4262	0.15707	-310.590237	-310.584697	-310.583753	-310.619396	24.125
C         -0.08460        1.57550        0.00740
C          1.45090        1.28820       -0.03490
C          1.32990        0.15010        1.02260
C          1.84620       -1.02050        0.15970
C          0.78250       -2.14630        0.31080
C         -0.57560       -1.33790        0.29730
C          0.03900        0.03970        0.14310
C          1.24600       -0.02230       -0.85260
H         -0.46080        2.12280        0.87820
H         -0.54080        1.95820       -0.91170
H          2.25810        2.01450       -0.13780
H          1.32900        0.25900        2.10970
H          2.89380       -1.32950        0.14130
H          0.83410       -2.86680       -0.51180
H          0.91260       -2.70540        1.24300
H         -1.22200       -1.62530       -0.53740
H         -1.14320       -1.46330        1.22420
H          1.14800       -0.11310       -1.93690
