14
gdb 17234	5.07681	1.78469	1.58244	2.5122	62.59	-0.2442	-0.0284	0.2158	793.3759	0.106748	-382.477115	-382.470769	-382.469825	-382.50773	24.024
O         -0.32550        0.58180       -0.82430
C          0.15050        1.05430        0.18600
C          1.31810        1.93420        0.19870
C          1.90270        2.87010        1.25490
C          2.83900        3.35320        0.11680
O          3.68900        2.19090       -0.13270
C          2.55850        1.59490       -0.73050
C          1.80440        2.83510       -0.95150
H         -0.27740        0.82220        1.18730
H          1.18720        3.64470        1.54270
H          2.39630        2.45050        2.13610
H          3.37920        4.29600        0.13760
H          2.63540        0.65880       -1.26550
H          1.25590        3.25560       -1.78190
