20
gdb 13788	3.83296	1.20246	1.09704	2.5445	76.89	-0.2398	-0.0098	0.23	1196.7228	0.175288	-349.025291	-349.016008	-349.015064	-349.059572	33.432
C         -0.03170        1.55680       -0.16200
C         -0.00160        0.09790        0.31000
C         -1.36250       -0.55780        0.19670
C         -1.83930       -1.17350       -1.07550
C         -1.55610       -2.08070        0.11090
C         -0.38080       -2.99770        0.04860
C         -0.44170       -4.21210        0.95850
O          0.57070       -2.79830       -0.68030
H          0.95400        2.02160       -0.06180
H         -0.32980        1.62380       -1.21350
H         -0.74190        2.15300        0.42230
H          0.72600       -0.47140       -0.27340
H          0.33330        0.05940        1.35490
H         -2.13230       -0.07710        0.79740
H         -2.87310       -1.05180       -1.37880
H         -1.12070       -1.25420       -1.88490
H         -2.40980       -2.46800        0.65730
H         -1.30770       -4.83300        0.70080
H          0.47220       -4.79850        0.85920
H         -0.57440       -3.90130        2.00120
