14
gdb 4678	5.84372	1.38539	1.12775	1.2162	77.65	-0.2078	-0.0163	0.1915	1015.6303	0.10631	-345.412792	-345.405354	-345.40441	-345.444426	27.506
C          0.14250        1.44260        0.06080
C         -0.06140       -0.02730       -0.01470
C         -1.16590       -0.81280       -0.17380
C         -0.71070       -2.16330       -0.16660
C          0.64670       -2.11520       -0.00300
O          1.04850       -0.80420        0.09060
C          1.63030       -3.11430        0.07950
C          2.46520       -3.98050        0.14890
H          0.80540        1.79560       -0.73710
H         -0.81640        1.95590       -0.03640
H          0.59530        1.73480        1.01490
H         -2.18140       -0.46550       -0.28280
H         -1.30030       -3.06030       -0.26810
H          3.20020       -4.74410        0.21000
