19
gdb 10305	2.20527	1.79282	1.26348	3.4859	72.13	-0.2355	0.0301	0.2656	1055.7727	0.165093	-361.232458	-361.222832	-361.221888	-361.266686	34.109
C          0.25710       -0.23150        1.56820
N         -0.08150       -0.16840        0.15020
C          0.96630       -0.76070       -0.67750
C         -1.43010       -0.66310       -0.12670
C         -1.98210       -0.13010       -1.46240
N         -2.04850        1.32420       -1.37850
C         -1.52710       -2.14230       -0.06810
N         -1.54980       -3.29730       -0.01760
H          1.21930        0.26300        1.73000
H         -0.50000        0.29830        2.15380
H          0.33520       -1.26370        1.95150
H          1.11890       -1.83480       -0.47980
H          0.73330       -0.63850       -1.73790
H          1.90650       -0.23820       -0.48010
H         -2.08230       -0.26050        0.65610
H         -1.37550       -0.52540       -2.29350
H         -2.99250       -0.53190       -1.59500
H         -1.12130        1.67700       -1.16090
H         -2.32390        1.71690       -2.27220
