16
gdb 9235	4.27961	1.27396	1.0975	1.0215	64.87	-0.2273	-0.0316	0.1956	1082.6031	0.129362	-417.071809	-417.063035	-417.062091	-417.105295	30.7
C          0.04420        1.10670        0.38010
O         -0.06000       -0.20920       -0.16320
C          0.58790       -0.43230       -1.32360
N          0.51750       -1.75820       -1.66840
N          1.20470        0.51740       -1.92550
C          1.95260        0.16130       -3.12830
C          0.95550       -0.02520       -4.25860
O          0.47600       -1.09740       -4.55590
H          1.08950        1.37420        0.55450
H         -0.39440        1.84350       -0.29750
H         -0.50670        1.07680        1.32120
H         -0.14060       -2.30110       -1.13130
H          0.54410       -1.96400       -2.65960
H          2.63580        0.98330       -3.36600
H          2.53520       -0.76480       -3.01630
H          0.61400        0.90360       -4.76260
