11
gdb 503	12.11679	1.70392	1.61189	3.1684	45.39	-0.2579	-0.0377	0.2203	701.3499	0.083436	-322.45625	-322.449687	-322.448743	-322.487435	21.048
O         -0.33110        0.25650        0.32820
C          0.17290        1.32810        0.12460
C          1.46970        1.52640       -0.64780
N          1.46110        2.73970       -1.43820
C          2.25740        3.80860       -1.14360
O          3.02120        3.86360       -0.20580
H         -0.27720        2.27640        0.49770
H          2.28350        1.64120        0.07920
H          1.66720        0.63780       -1.25510
H          0.87590        2.78960       -2.25690
H          2.12490        4.63270       -1.87030
