18
gdb 14135	4.50528	1.55365	1.34379	1.7389	72.78	-0.2424	0.0255	0.2678	966.7874	0.153474	-347.80529	-347.797687	-347.796743	-347.837292	28.975
C         -0.06550        1.52940       -0.03040
C         -0.04760        0.03040        0.12620
O          1.20270       -0.63670       -0.09400
C          0.63400       -0.66970        1.22320
C          1.42430        0.02800        2.33990
C          1.57430       -1.05460        3.37930
C          0.91290       -2.16600        3.05910
C          0.18960       -2.04520        1.74210
H          0.79570        1.99000        0.45900
H         -0.04220        1.80300       -1.09050
H         -0.98020        1.94920        0.40290
H         -0.89790       -0.48290       -0.33080
H          2.38440        0.39070        1.95540
H          0.89350        0.90320        2.73940
H          2.15660       -0.91190        4.28270
H          0.87460       -3.06600        3.66250
H         -0.90020       -2.10500        1.86860
H          0.46650       -2.82440        1.02210
