12
gdb 3807	8.08545	2.12171	1.6987	1.3752	51.63	-0.2332	0.0011	0.2343	689.187	0.092279	-356.68654	-356.680403	-356.679459	-356.716664	21.434
C          0.00540        1.40360        0.04850
O          0.01080       -0.02280        0.01440
C          0.62410       -0.62660        1.03850
N          1.20770        0.00910        2.05130
N          1.66520       -1.00200        2.79850
N          1.42680       -2.22350        2.35390
C          0.75740       -2.01890        1.22110
H          1.02660        1.79840        0.04230
H         -0.52720        1.72140       -0.84840
H         -0.50730        1.77100        0.94350
H          2.16560       -0.83610        3.65510
H          0.41110       -2.83210        0.60610
