24
gdb 8237	4.31983	0.97422	0.94229	0.0731	85.73	-0.2827	0.0804	0.3631	1399.2642	0.223181	-314.273065	-314.263569	-314.262625	-314.307621	35.512
C         -0.19150        1.50320       -0.12970
C          0.05850       -0.00750       -0.01750
C          0.80300       -0.52270       -1.25690
C          0.82340       -0.38370        1.26650
C          0.07570       -0.12740        2.56900
C         -1.19600       -0.96620        2.89560
C         -0.73210       -1.02470        4.37550
C          0.69540       -0.64160        3.90080
H          0.75680        2.05410       -0.15610
H         -0.73770        1.74260       -1.04830
H         -0.77670        1.88820        0.71050
H         -0.91930       -0.50960        0.01810
H          1.79610       -0.06350       -1.33540
H          0.94280       -1.60820       -1.21680
H          0.25650       -0.28780       -2.17660
H          1.08070       -1.45140        1.22140
H          1.78120        0.15800        1.28310
H         -0.15620        0.93870        2.67190
H         -2.17380       -0.52700        2.68170
H         -1.14900       -1.95260        2.42080
H         -1.18670       -0.22950        4.97360
H         -0.85420       -1.96990        4.90980
H          1.31420       -1.52940        3.73050
H          1.26700        0.06650        4.50660
