16
gdb 16256	2.89942	2.24941	1.45867	1.8317	60.01	-0.2446	0.0507	0.2952	854.617	0.130328	-420.844507	-420.837096	-420.836152	-420.876477	27.553
O          0.06390        1.41960       -0.22070
C         -0.00310        0.02880        0.03390
C          0.51180       -0.39350        1.42430
O         -0.22240       -1.56300        1.75110
C         -1.56300       -1.32340        1.33520
C         -1.45390       -0.45320        0.08680
C         -2.56380        0.28290       -0.51640
O         -2.04720       -0.90760       -1.12830
H          0.95920        1.63270       -0.49990
H          0.50970       -0.54240       -0.75170
H          1.57500       -0.64460        1.45270
H          0.31690        0.42710        2.13490
H         -2.04590       -2.28090        1.12640
H         -2.12450       -0.80330        2.12790
H         -3.56330        0.19210       -0.09120
H         -2.35550        1.21010       -1.04420
