14
gdb 2064	5.0588	2.61575	1.79821	4.175	59.88	-0.2393	-0.0314	0.2079	680.8172	0.11637	-324.625415	-324.619449	-324.618505	-324.655101	22.623
O         -0.00780       -0.03590       -0.23000
C         -0.01090        1.16740       -0.03440
N         -1.16900        1.87430        0.19950
C         -1.22850        3.32470        0.06760
C         -0.03300        3.96690        0.77570
C          1.24150        3.25050        0.41820
C          1.23660        1.97390        0.02740
H         -2.00960        1.34330        0.02310
H         -1.22450        3.62760       -0.99160
H         -2.16740        3.67730        0.50390
H          0.02740        5.02590        0.50370
H         -0.17200        3.93340        1.86600
H          2.17830        3.79280        0.51890
H          2.14210        1.42900       -0.21280
