15
gdb 9620	3.44409	1.4609	1.21709	3.5949	62.43	-0.2702	0.0277	0.2979	986.044	0.117566	-399.790779	-399.782492	-399.781548	-399.823453	30.13
O         -0.13570        1.43540       -0.26300
C          0.01770        0.06040        0.08250
C         -1.37300       -0.52430        0.02860
O         -2.27800        0.14320        0.85000
C         -1.89010       -1.14550       -1.23690
C         -1.58240       -2.02160       -0.01830
C         -0.46420       -2.92080       -0.03470
N          0.44700       -3.63430       -0.04980
H          0.64860        1.91220        0.02250
H          0.69010       -0.46180       -0.61030
H          0.41590       -0.04980        1.10060
H         -2.12690        1.08360        0.68250
H         -2.94000       -1.00940       -1.46480
H         -1.22600       -1.22880       -2.08910
H         -2.43960       -2.36920        0.54780
