14
gdb 523	21.32017	1.26339	1.22011	0.9061	59.21	-0.2424	0.0413	0.2837	974.5309	0.117121	-270.392759	-270.384807	-270.383863	-270.426097	25.219
C          0.10310        1.41290       -0.02930
O          0.13830        0.00780       -0.10920
C          0.51720       -0.58340        1.12030
C          0.54170       -2.03400        0.99680
C          0.56880       -3.23430        0.91860
C          0.59860       -4.68540        0.81300
H          1.08840        1.83480        0.22720
H         -0.19550        1.78560       -1.01170
H         -0.62390        1.76390        0.72100
H          1.51190       -0.21530        1.42920
H         -0.18570       -0.28560        1.91870
H          1.58740       -5.08460        1.06450
H         -0.13060       -5.15110        1.48490
H          0.36170       -5.00720       -0.20700
