17
gdb 13129	4.40536	1.0564	0.90076	2.7037	65.7	-0.2447	-0.0278	0.2169	1247.0645	0.141242	-400.982189	-400.973682	-400.972738	-401.015985	30.101
O          0.30500        1.34110       -0.25790
C          0.11490       -0.03310        0.03410
C         -1.31800       -0.50230       -0.22650
C         -1.50800       -1.98720        0.05910
N         -1.47670       -2.38370        1.50040
C         -2.75570       -3.13870        1.40590
C         -2.94060       -2.55040       -0.00230
O         -3.82970       -2.50460       -0.79690
H         -0.23230        1.84950        0.35790
H          0.80910       -0.57260       -0.62120
H          0.39550       -0.26750        1.07240
H         -2.00910        0.06810        0.40730
H         -1.58560       -0.30070       -1.26980
H         -0.83770       -2.58550       -0.57930
H         -0.68320       -2.96210        1.74870
H         -2.66670       -4.23390        1.38690
H         -3.50810       -2.86240        2.15250
