13
gdb 3542	6.30607	3.03425	2.67506	1.4741	52.3	-0.2374	0.0693	0.3067	533.2109	0.103343	-344.377098	-344.372374	-344.371429	-344.405342	19.146
C         -0.00980        1.57430       -0.01430
O          1.41300        1.84390       -0.03050
C          1.97160        0.55890        0.00410
C          1.15260       -0.44600       -0.86170
O          1.45760       -1.53470        0.06870
C          1.16310       -0.39300        0.93700
C         -0.02690        0.05610        0.03050
H         -0.46420        2.04400        0.86580
H         -0.47450        1.99150       -0.91540
H          3.05890        0.57210       -0.00260
H          1.17850       -0.65430       -1.93090
H          1.20140       -0.53800        2.01620
H         -0.96670       -0.49190        0.05210
