18
gdb 11457	5.16487	1.28613	1.12885	1.2654	71.36	-0.2465	0.0154	0.262	1105.8417	0.152717	-384.945435	-384.936966	-384.936021	-384.978574	30.188
C          0.03840        1.29260       -0.24900
O         -0.05240       -0.11130       -0.09260
C         -1.35600       -0.56020        0.17840
O         -2.23210       -0.38810       -0.92790
C         -2.51100       -1.65080       -1.52060
C         -1.95250       -2.67860       -0.56870
C         -2.11670       -4.14560       -0.79570
C         -1.32030       -2.04330        0.41410
H          1.09410        1.53190       -0.39540
H         -0.53600        1.63880       -1.11680
H         -0.32610        1.82100        0.64580
H         -1.76890        0.03490        1.01060
H         -3.59830       -1.74570       -1.65290
H         -2.05210       -1.73160       -2.51910
H         -1.68340       -4.44480       -1.75820
H         -1.63260       -4.72990       -0.00950
H         -3.17650       -4.42700       -0.82860
H         -0.78850       -2.48650        1.24540
