13
gdb 5005	3.48829	2.35574	1.40766	0.9873	65.2	-0.2044	-0.0278	0.1766	805.6183	0.099044	-394.852834	-394.846419	-394.845475	-394.883134	24.892
N          0.00610        1.38900        0.13300
C         -0.04980        0.01700        0.04380
C         -1.18270       -0.75300        0.01420
N         -1.18160       -2.12500       -0.01440
C         -0.03170       -2.71030       -0.02000
N          1.15510       -2.02850       -0.00650
C          1.25510       -0.64230        0.01520
O          2.33120       -0.06090        7.92540
H          0.91470        1.76400       -0.10390
H         -0.78040        1.91220       -0.21700
H         -2.16400       -0.28560        0.01710
H          0.04170       -3.79320       -0.03680
H          2.03540       -2.52650       -0.02820
