18
gdb 20299	4.85616	1.36993	1.34278	1.5612	71.78	-0.2295	0.0802	0.3097	993.2737	0.154613	-347.737471	-347.730379	-347.729435	-347.769243	27.397
C         -0.08960        1.44520       -0.09980
C          1.29220        0.86410        0.07040
C          0.09270       -0.04960        0.00350
C         -0.35330       -0.78670        1.22560
C         -1.70440       -1.47360        1.38770
C         -2.07850       -2.19090        0.09600
O         -0.78280       -2.84960        0.03740
C         -0.42610       -2.28160        1.30330
H         -0.52960        1.95970        0.74860
H         -0.35860        1.86850       -1.06150
H          1.97130        0.88510       -0.77480
H          1.78000        0.99050        1.03200
H         -0.01700       -0.61750       -0.91400
H         -0.03090       -0.34030        2.16570
H         -2.36810       -1.28370        2.22050
H         -2.87420       -2.93310        0.22390
H         -2.27980       -1.58120       -0.79250
H          0.10130       -2.91690        2.00650
