16
gdb 20802	3.25493	1.7649	1.24621	3.8481	67.43	-0.2101	0.0143	0.2244	975.6925	0.131061	-379.924404	-379.916424	-379.91548	-379.957309	28.981
C         -0.15470        1.57620        0.04290
C          0.00080        0.04480        0.01270
C          0.71320       -0.47080       -1.20210
C          2.04910       -0.73580       -1.36690
N          3.12110       -0.69630       -0.50320
O          2.30390       -1.17870       -2.60420
N          1.09270       -1.22770       -3.33080
C          0.19120       -0.80390       -2.48080
H          0.82040        2.07430        0.02220
H         -0.71910        1.92860       -0.82590
H         -0.68200        1.90070        0.94590
H          0.53250       -0.28510        0.91430
H         -0.99170       -0.41690        0.07230
H          3.05980        0.01470        0.21030
H          4.01800       -0.69620       -0.96860
H         -0.83980       -0.75260       -2.80720
