11
gdb 21395	5.71768	2.3849	1.68293	0.6669	57.44	-0.2326	-0.0358	0.1968	676.3168	0.076037	-389.740844	-389.735657	-389.734713	-389.769962	20.023
N          0.00580        1.32400        0.04520
N          1.28820        1.77500        0.02560
N          2.09240        0.77490       -0.00750
N          1.32210       -0.34740       -0.00940
C          1.41230       -1.72740       -0.03340
C          0.09360       -2.12940       -0.01140
N         -0.80760       -1.07460        0.02500
C         -0.00960       -0.03670        0.02430
H         -0.75350        1.98190        0.07250
H          2.34840       -2.25440       -0.06230
H         -0.26480       -3.14820       -0.01990
