15
gdb 18490	5.74205	1.25539	1.16178	3.9545	64.57	-0.2716	0.035	0.3065	1002.5961	0.119135	-362.636658	-362.629585	-362.62864	-362.668485	26.002
N         -0.09170       -1.08670       -0.28070
C         -0.06130        0.04810       -0.06380
C          0.00900        1.48230        0.20560
C          1.43230        2.03610        0.06270
C          2.07840        2.05780       -1.37300
C          2.15180        3.58500       -1.26070
O          0.81460        4.05870       -1.04850
C          1.54670        3.57240        0.08060
H         -0.64900        2.01080       -0.49210
H         -0.37290        1.66720        1.21670
H          2.10280        1.56810        0.78730
H          3.05500        1.57060       -1.39410
H          1.46450        1.68050       -2.19420
H          2.85420        4.27660       -1.70990
H          1.65940        4.24000        0.92720
