22
gdb 18397	2.99744	1.99527	1.35751	0.163	81.18	-0.2559	0.086	0.3419	986.1662	0.204053	-313.079656	-313.072346	-313.071402	-313.110685	30.19
C         -0.03510        1.55230        0.04110
C          1.28490        0.81820        0.02510
C          2.20980        0.79010        1.22850
C          2.80190       -0.60650        1.49750
C          1.85560       -1.57700        2.22700
C          0.54670       -1.95850        1.51250
C         -0.40880       -0.77980        1.24600
C         -0.00950        0.04210        0.03370
H         -0.32390        2.04430        0.96560
H         -0.35430        2.07490       -0.85440
H          1.81360        0.82260       -0.92540
H          3.02220        1.50930        1.06660
H          1.68120        1.13630        2.12560
H          3.12620       -1.04950        0.54590
H          3.70780       -0.50040        2.10740
H          2.40980       -2.49880        2.44480
H          1.60190       -1.14290        3.20520
H          0.77530       -2.45900        0.56150
H          0.03230       -2.70400        2.13190
H         -1.42740       -1.15840        1.09630
H         -0.45630       -0.14520        2.13980
H         -0.27190       -0.42770       -0.91160
