20
gdb 14420	3.8862	1.795	1.61697	0.462	78.82	-0.2326	0.0992	0.3318	914.8539	0.177797	-311.829314	-311.821772	-311.820828	-311.860556	29.968
C         -0.00030        1.60980       -0.00760
C          0.09620        0.08890       -0.00430
C          0.81100       -0.66630       -1.12510
C          2.29900       -0.79850       -0.73510
C          2.48710       -0.12920        0.62250
C          1.06840       -0.66060        0.96050
C          1.26550       -1.75410       -0.18180
C          1.13380       -3.24040       -0.20520
H          0.96830        2.08470       -0.18580
H         -0.68050        1.95030       -0.79650
H         -0.39020        1.98290        0.94670
H         -0.90490       -0.34140        0.12150
H          0.50310       -0.77980       -2.15810
H          3.04720       -1.00650       -1.49050
H          3.25060       -0.64690        1.21070
H          2.66420        0.95070        0.67680
H          0.77870       -0.85300        1.99270
H          0.11820       -3.56260        0.05470
H          1.35720       -3.63190       -1.20410
H          1.82300       -3.72140        0.49930
