17
gdb 11109	4.60509	1.19316	1.01417	0.8615	68.	-0.2528	0.0256	0.2784	1160.0712	0.141311	-400.991004	-400.982448	-400.981503	-401.024814	30.032
C         -0.04790        1.52300       -0.34900
N         -0.04440        0.06880       -0.42170
C         -1.00040       -0.57250        0.06030
C         -1.35990       -2.03810        0.17300
C         -2.62330       -1.51260        0.88460
C         -2.78700       -1.80460        2.36250
O         -3.74930       -0.95350        2.94870
O         -2.15810       -0.12920        0.69850
H          0.84590        1.85600        0.19000
H          0.02130        1.93100       -1.36320
H         -0.93270        1.94660        0.14040
H         -1.52070       -2.54520       -0.77930
H         -0.68130       -2.63050        0.79110
H         -3.56700       -1.65300        0.35030
H         -3.14120       -2.83250        2.49930
H         -1.80660       -1.71720        2.85900
H         -3.46580       -0.05030        2.76320
