18
gdb 13797	4.06305	1.27079	1.16027	2.7006	70.4	-0.2236	0.0154	0.239	1103.0123	0.153126	-381.12761	-381.118638	-381.117693	-381.161443	32.208
C         -0.37370        1.61600       -0.55410
C         -0.53900        0.09980       -0.49300
N          0.58760       -0.53930       -1.18330
C          1.77930       -0.84770       -0.42220
C          0.91380       -1.95220       -0.94150
C          0.15880       -2.77950        0.06550
N         -0.19950       -4.01640       -0.38920
O         -0.10670       -2.40040        1.19360
H          0.52530        1.93390       -0.01560
H         -0.28600        1.95790       -1.58950
H         -1.23340        2.11210       -0.09340
H         -0.63890       -0.23840        0.54490
H         -1.45150       -0.19700       -1.02400
H          2.73090       -0.64130       -0.90540
H          1.74920       -0.70680        0.65680
H          1.21850       -2.48170       -1.84290
H         -0.08460       -4.28990       -1.34890
H         -0.75010       -4.60100        0.21810
