22
gdb 5942	4.15459	1.11288	1.10387	0.6671	83.75	-0.2589	0.051	0.3099	1218.0776	0.197126	-313.051009	-313.04088	-313.039936	-313.08513	38.145
C         -0.12630        1.52680       -0.17220
C          0.02330        0.01580        0.03660
C          0.78130       -0.43620        1.31010
C          2.22950        0.08230        1.30160
C          0.05820        0.04360        2.58020
C          0.79220       -1.99650        1.28160
C          1.46690       -2.63040        2.40790
C          2.02450       -3.14870        3.33910
H          0.84320        2.02720       -0.25400
H         -0.67550        1.72690       -1.09770
H         -0.68000        2.00040        0.64400
H         -0.97690       -0.43800        0.05270
H          0.53400       -0.41130       -0.83720
H          2.26200        1.17340        1.36850
H          2.78940       -0.32150        2.14990
H          2.75050       -0.21390        0.38370
H         -0.98890       -0.28070        2.58590
H          0.53930       -0.36130        3.47500
H          0.07180        1.13450        2.65800
H         -0.24460       -2.35620        1.23950
H          1.26750       -2.32930        0.34910
H          2.51510       -3.61440        4.15730
