15
gdb 16689	4.46452	1.7351	1.62135	4.1812	60.96	-0.2427	0.0201	0.2628	811.4191	0.120568	-399.799562	-399.793045	-399.792101	-399.82988	25.948
O         -0.02150        1.41270       -0.10760
C          0.03880        0.01310       -0.02890
C          0.05680       -0.61230        1.40780
C         -1.44680       -0.22040        1.50170
C         -1.39240       -0.61340       -0.02240
C         -1.04330       -2.10320        0.12410
O         -1.55020       -3.08290       -0.35940
N          0.02250       -2.03630        1.02300
H          0.87040        1.75850        0.00010
H          0.76430       -0.41530       -0.73160
H          0.80710       -0.36910        2.15920
H         -2.08140       -0.81930        2.15890
H         -1.61150        0.84600        1.64860
H         -2.15610       -0.35280       -0.74980
H          0.17660       -2.78100        1.68660
