20
gdb 13291	5.10901	0.94203	0.94056	2.1709	72.26	-0.2555	0.0809	0.3364	1328.6442	0.176842	-386.117916	-386.109191	-386.108247	-386.152268	31.608
O          0.29390        1.07610       -0.27280
C         -0.06300       -0.16880        0.29440
C         -1.55870       -0.41840        0.18110
O         -1.87010       -0.39310       -1.20260
C         -3.24220       -0.49220       -1.48580
C         -4.16220        0.73950       -1.24610
C         -4.84240        0.41490       -2.60540
C         -3.59650       -0.43380       -2.98360
H         -0.12640        1.09230       -1.14090
H          0.47590       -1.00050       -0.18740
H          0.23060       -0.14300        1.34900
H         -1.82990       -1.39020        0.62550
H         -2.11050        0.37110        0.71330
H         -3.66090       -1.39090       -1.00630
H         -4.78280        0.76220       -0.34770
H         -3.57390        1.66050       -1.30150
H         -5.73450       -0.20400       -2.47740
H         -5.09430        1.25520       -3.25440
H         -2.84990        0.16380       -3.51450
H         -3.74270       -1.37680       -3.51420
