18
gdb 11951	3.38566	1.67371	1.34688	2.1511	68.14	-0.2495	0.074	0.3235	971.573	0.152334	-384.90878	-384.90046	-384.899516	-384.941506	30.99
C         -0.20680        1.43370        0.13610
C          0.19560       -0.00260        0.04420
C          0.65160       -0.78840       -1.20000
C          1.44960       -1.74930       -0.25150
C          0.95670       -0.90810        0.93540
C          1.54530       -0.73940        2.29980
O          1.33430       -1.88930        3.10590
O         -0.48870       -0.95280        0.87980
H          0.53930        2.07720       -0.34100
H         -1.16440        1.59620       -0.37180
H         -0.32150        1.74030        1.17900
H         -0.15870       -1.23100       -1.78420
H          1.30400       -0.21080       -1.85960
H          1.14030       -2.79630       -0.23430
H          2.53020       -1.69050       -0.40310
H          2.63050       -0.60920        2.23150
H          1.12500        0.16380        2.76780
H          0.38350       -2.04870        3.11110
