15
gdb 7625	5.65754	1.15502	1.13627	4.9504	62.9	-0.2444	-0.0171	0.2273	1047.3395	0.117748	-399.843849	-399.835718	-399.834774	-399.877584	28.854
N         -0.23020        1.34540        0.64040
C          0.00950        0.25930       -0.14540
O          1.09490        0.04390       -0.65390
C         -1.16570       -0.67960       -0.35360
C         -1.45820       -1.03570       -1.84940
C         -1.49330       -2.51120       -1.42880
O         -1.94210       -3.50420       -1.91950
C         -0.85340       -2.18720       -0.07220
H          0.52150        1.99610        0.80110
H         -1.12650        1.52660        1.05530
H         -2.06640       -0.34790        0.16790
H         -2.35070       -0.62370       -2.32450
H         -0.57790       -0.83070       -2.46790
H          0.22710       -2.36350       -0.10220
H         -1.28240       -2.65760        0.81480
