17
gdb 5620	3.19551	1.85519	1.1917	1.7949	71.67	-0.1724	0.0601	0.2325	995.9565	0.143834	-360.056066	-360.047631	-360.046687	-360.088826	31.217
C          0.03310        1.36400        0.06930
N         -0.09910       -0.07700       -0.03780
C          0.58250       -0.69990       -1.09320
C          1.20670       -0.12050       -2.17830
N          1.68610       -1.14500       -2.97210
C          1.37070       -2.35520       -2.41860
C          0.68860       -2.12200       -1.24540
N          0.16920       -3.11950       -0.37140
H          1.07920        1.71190        0.11960
H         -0.43190        1.83810       -0.80240
H         -0.49430        1.71340        0.96070
H          0.08410       -0.54340        0.84200
H          1.34680        0.91090       -2.45350
H          2.16630       -1.01700       -3.84330
H          1.64530       -3.28650       -2.88630
H          0.79720       -3.31840        0.40210
H         -0.71140       -2.81350        0.03100
