20
gdb 14341	4.67083	1.52862	1.29936	0.3556	82.22	-0.2209	0.0246	0.2455	1013.7484	0.178563	-311.860093	-311.85271	-311.851765	-311.891441	29.438
C         -0.14860        1.57180        0.04100
C          0.02360        0.05000        0.03350
C          0.76840       -0.48760       -1.23790
C          1.49530       -1.74680       -0.73120
C          3.04800       -1.99320       -0.71150
C          2.95730       -2.20470        0.84810
C          1.62540       -1.49770        0.74710
C          0.89660       -0.47520        1.17880
H          0.82450        2.07580        0.02050
H         -0.71900        1.90720       -0.83210
H         -0.68240        1.90990        0.93580
H         -0.98000       -0.40070        0.08280
H          0.09050       -0.66540       -2.07870
H          1.50020        0.26550       -1.55730
H          0.96520       -2.67360       -0.98420
H          3.43390       -2.82850       -1.30100
H          3.60420       -1.08500       -0.95790
H          2.86760       -3.26790        1.09640
H          3.72890       -1.76000        1.48130
H          0.93630        0.00490        2.15070
