19
gdb 17074	5.5344	1.19833	1.06878	1.851	72.22	-0.2301	0.0877	0.3179	1140.104	0.165853	-365.006047	-364.998095	-364.997151	-365.039237	28.895
C         -0.07410        1.50980        0.29200
C          0.08540        0.00660        0.15620
C         -1.20360       -0.84270        0.11830
C         -0.68190       -1.31390       -1.25350
O          0.43540       -0.40420       -1.19180
N          1.21710        2.17970        0.24270
C          1.72950        2.48310       -1.09220
C          1.21110        3.56640       -0.21390
H         -0.76920        1.86400       -0.49200
H         -0.53640        1.72420        1.26530
H          0.84040       -0.34380        0.87180
H         -1.30160       -1.60660        0.89060
H         -2.12290       -0.25370        0.07610
H         -0.35320       -2.36060       -1.29000
H         -1.32650       -1.11700       -2.11820
H          2.79840        2.34550       -1.22540
H          1.12300        2.18560       -1.94340
H          0.25350        4.01110       -0.48170
H          1.89250        4.23560        0.30390
