17
gdb 2796	4.28029	2.04792	1.5593	2.7308	59.76	-0.2454	0.0659	0.3113	818.1751	0.148384	-346.831172	-346.823604	-346.82266	-346.863037	27.262
C         -0.29690        1.53020       -0.15960
C          0.00880        0.04560       -0.01370
C          1.35460       -0.49410       -0.54630
O          1.63920       -1.15730        0.70560
C          0.48770       -0.53880        1.34380
C          0.96970        0.39390        2.44520
O          1.74190       -0.33600        3.37930
H          0.53120        2.15710        0.18410
H         -0.48460        1.77900       -1.20960
H         -1.19060        1.81100        0.40760
H         -0.82940       -0.53940       -0.40210
H          1.31150       -1.20270       -1.38080
H          2.09750        0.28180       -0.77760
H         -0.16090       -1.30610        1.78410
H          1.55000        1.22480        2.01440
H          0.12110        0.82360        2.98940
H          2.39080       -0.82110        2.85360
