15
gdb 2219	3.76375	2.88713	2.26359	1.7993	56.63	-0.233	0.0665	0.2995	652.5971	0.124552	-345.60818	-345.601516	-345.600572	-345.638285	25.337
C         -0.11910        1.47800        0.01300
C          0.09620        0.00270        0.07450
O         -1.06030       -0.84550       -0.09940
C         -0.58370       -1.74180        0.94960
C          0.71900       -0.97190        1.07880
C          1.29420       -0.79550       -0.32040
O          1.22890       -1.77960       -1.30230
H          0.82010        2.00700        0.19890
H         -0.48210        1.77170       -0.97850
H         -0.85570        1.80200        0.75510
H         -1.23530       -1.67480        1.82650
H         -0.52030       -2.78050        0.60670
H          1.27890       -0.80010        1.98890
H          2.23590       -0.25380       -0.34630
H          0.29770       -1.83430       -1.55840
