16
gdb 4463	3.56751	1.7078	1.16564	1.1426	68.88	-0.1579	0.0715	0.2295	994.1751	0.130363	-379.952009	-379.943238	-379.942293	-379.98481	31.852
C         -0.12510        1.49460        0.06960
C         -0.02970        0.01230       -0.05060
C          0.17520       -0.81180       -1.13320
N          0.41200       -0.43010       -2.47290
C          0.20110       -2.17060       -0.67070
C          0.01600       -2.11730        0.68880
O         -0.06050       -3.07130        1.65350
N         -0.11070       -0.82020        1.07180
H         -0.30510        1.94650       -0.91120
H         -0.95950        1.80060        0.71450
H          0.78450        1.96180        0.47360
H          0.18890        0.54480       -2.63400
H         -0.13190       -0.98750       -3.12210
H          0.35660       -3.05550       -1.26860
H          0.07440       -3.92780        1.23760
H         -0.27720       -0.52370        2.01690
