20
gdb 15266	3.61678	1.25521	1.16193	2.4916	71.33	-0.2473	0.0578	0.3051	1136.9544	0.176637	-386.119038	-386.109944	-386.109	-386.152944	33.596
C         -0.37820        1.48580        0.18980
C          0.14430        0.07380       -0.10330
C          0.81640       -0.53750        1.10900
C          0.03540       -1.38050        2.08340
O         -1.29490       -1.67580        1.77790
C          1.11670       -2.02890        1.24310
C          0.68660       -3.05020        0.21080
O         -0.14480       -4.07930        0.77740
H          0.43220        2.15500        0.50050
H         -0.85010        1.92300       -0.69570
H         -1.12120        1.46300        0.99280
H         -0.69660       -0.55330       -0.41090
H          0.84980        0.10680       -0.94350
H          1.57100        0.10350        1.56020
H          0.22940       -1.24670        3.14750
H         -1.33200       -2.62860        1.60830
H          2.04010       -2.27740        1.76130
H          0.07460       -2.60210       -0.57310
H          1.56320       -3.49790       -0.27650
H          0.35910       -4.50650        1.47840
