18
gdb 15120	6.94163	0.8039	0.77889	4.5321	73.21	-0.2431	0.0247	0.2677	1449.8915	0.154261	-343.96806	-343.959452	-343.958508	-344.002317	30.516
N         -0.04700       -0.97940       -0.26380
C          0.24080        0.08960        0.06550
C          0.63820        1.43720        0.48660
N          0.66950        2.34870       -0.65070
C          0.98260        3.73530       -0.29690
C          2.38040        3.99850        0.23430
C          3.53490        4.12190       -0.73150
C          3.02870        5.33930        0.00050
H         -0.10500        1.80410        1.20600
H          1.58870        1.34300        1.04030
H          1.33810        2.01010       -1.33590
H          0.82470        4.34090       -1.19760
H          0.23310        4.06630        0.43410
H          2.60870        3.53000        1.18820
H          4.49670        3.71020       -0.44710
H          3.31920        4.04750       -1.79330
H          2.47240        6.07670       -0.56940
H          3.64160        5.76080        0.78920
