16
gdb 7425	3.35767	1.51288	1.16369	1.9257	62.11	-0.2553	-0.0964	0.1589	1036.6815	0.12644	-420.910014	-420.900654	-420.89971	-420.944734	32.257
C          0.08870        1.48680        0.13730
C         -0.04420       -0.04690        0.20230
O         -1.39500       -0.43170        0.24380
C          0.63710       -0.70010       -0.99030
O         -0.00720       -1.28790       -1.83310
C          2.17540       -0.62600       -1.10310
C          2.77470       -1.20120       -2.36050
O          2.81660       -0.14460       -0.19830
H          1.13220        1.79690        0.21970
H         -0.33580        1.86920       -0.79630
H         -0.47790        1.91460        0.96760
H          0.46920       -0.39870        1.10870
H         -1.57210       -0.88920       -0.59170
H          2.38640       -0.67110       -3.23670
H          3.86090       -1.12100       -2.31970
H          2.46960       -2.24570       -2.47750
