13
gdb 20685	4.00415	2.01023	1.34944	1.9638	65.11	-0.2517	-0.0875	0.1642	855.0391	0.096388	-390.94078	-390.933844	-390.9329	-390.972267	25.067
C         -0.00890        1.46190       -0.01710
C         -0.06320       -0.03160        0.02050
N         -1.17400       -0.65030       -0.19010
C         -1.16980       -2.04010       -0.14400
N         -2.22480       -2.72080       -0.34100
N          0.10540       -2.58250        0.13870
N          1.22900       -1.89570        0.34960
N          1.18630       -0.62930        0.29940
H          0.71030        1.78770       -0.77590
H         -0.99460        1.87110       -0.23460
H          0.35460        1.84410        0.94260
H         -2.05040       -3.72350       -0.27210
H          0.23390       -3.58320        0.19800
