16
gdb 3606	5.38809	1.92811	1.64922	2.7619	61.84	-0.2279	0.0807	0.3086	784.3891	0.136567	-325.718022	-325.711149	-325.710205	-325.74893	25.972
O          0.00510        1.39260        0.04020
C          0.05250        0.00220        0.04190
C         -0.44670       -0.77510        1.23730
C         -1.24610       -0.75950       -0.05170
N         -2.41390        0.08110       -0.07620
C         -3.31470       -0.05990       -1.21770
C         -3.71340       -0.55300        0.12990
H         -0.93680        1.61690        0.08800
H          0.91820       -0.37300       -0.49500
H          0.05110       -1.69680        1.51900
H         -0.84270       -0.19210        2.06180
H         -1.28910       -1.67750       -0.64140
H         -3.72900        0.86320       -1.61180
H         -3.06170       -0.80430       -1.97000
H         -3.72820       -1.62930        0.28580
H         -4.42200        0.00650        0.73360
