13
gdb 9865	5.95149	0.93683	0.8599	4.8184	73.67	-0.2839	-0.055	0.2289	1267.881	0.093895	-361.427874	-361.419953	-361.419009	-361.460574	27.763
C         -0.02850        1.51220        0.02180
C         -0.01690       -0.00010       -0.05610
C          0.76470       -0.70590       -1.09780
O          1.23780       -0.63660        0.24160
C         -1.17260       -0.66710        0.49420
C         -2.15470       -1.19170        0.96400
C         -3.26200       -1.79380        1.48790
N         -4.20640       -2.30460        1.93150
H          0.88920        1.90950       -0.41750
H         -0.88920        1.91940       -0.51650
H         -0.08870        1.83940        1.06340
H          0.44730       -1.69020       -1.43540
H          1.31060       -0.10620       -1.82480
