18
gdb 16522	3.58163	2.40562	1.85684	1.4632	70.57	-0.2214	0.0973	0.3187	783.3814	0.155377	-347.780695	-347.774127	-347.773182	-347.810903	26.811
C          0.02900        1.43430        0.00700
C         -0.03360       -0.06570        0.00980
O          0.95520       -0.66370       -0.81720
C          0.40680       -1.88780       -1.31890
C         -0.70420       -2.23350       -0.33150
C         -0.11980       -2.29700        1.11830
C         -0.43990       -0.81090        1.27160
C         -1.30690       -0.83890        0.00110
H          1.00790        1.77880        0.35540
H         -0.12880        1.82700       -1.00240
H         -0.73520        1.85440        0.66730
H          0.01470       -1.74330       -2.33810
H          1.20650       -2.63550       -1.35220
H         -1.36590       -3.04150       -0.64110
H         -0.74090       -2.91130        1.77490
H          0.92700       -2.60560        1.21630
H         -0.62360       -0.28690        2.20370
H         -2.30000       -0.46150       -0.20650
