14
gdb 1871	5.73693	2.21815	1.70552	4.9124	53.69	-0.2604	0.0537	0.3141	720.3875	0.115126	-361.773017	-361.766571	-361.765626	-361.803395	23.489
C         -0.13100        1.54700        0.02330
C          0.13070        0.05390        0.00660
C          0.89860       -0.46980       -1.22580
N          1.68470       -1.51870       -0.60670
C          1.86060       -1.27560        0.74170
O          2.63370       -1.80120        1.49220
O          0.97030       -0.30890        1.12010
H          0.80790        2.10330       -0.05210
H         -0.77270        1.82670       -0.81860
H         -0.63290        1.83840        0.94920
H         -0.81100       -0.49960        0.11470
H          0.22280       -0.85430       -1.99490
H          1.52160        0.31970       -1.67170
H          2.44160       -1.97640       -1.08800
