21
gdb 8422	3.3668	1.8132	1.53153	1.0329	78.54	-0.2248	0.0806	0.3054	949.3635	0.187743	-329.081777	-329.073292	-329.072348	-329.113803	33.184
C         -0.11660        1.50200       -0.34220
N          0.15700        0.10140       -0.06600
C          1.43220       -0.53420       -0.27820
C          2.62750        0.33110        0.17320
C          2.05470        0.32770        1.63620
C          2.86740       -0.61870        2.52780
C          1.84590        1.66140        2.35480
C          0.81270       -0.43950        1.09920
H          0.75330        2.17050       -0.30190
H         -0.54260        1.57460       -1.34870
H         -0.86550        1.86890        0.36640
H          1.48820       -1.37890       -0.95730
H          3.58600       -0.18750        0.09710
H          2.72440        1.30430       -0.31760
H          3.85330       -0.19550        2.75010
H          2.35600       -0.79410        3.48170
H          3.01620       -1.59100        2.04660
H          1.29730        2.38800        1.75370
H          1.28780        1.51330        3.28670
H          2.81070        2.11030        2.62020
H          0.28050       -1.19600        1.67100
