17
gdb 13442	3.57971	1.32387	1.20207	3.0952	67.24	-0.2422	0.0109	0.2531	1066.6076	0.140116	-400.969129	-400.960109	-400.959164	-401.004078	31.259
C         -0.05210        1.57750       -0.13440
C          0.05920        0.07020       -0.07610
C          1.41290       -0.62370       -0.10320
O          2.59020        0.11970       -0.10350
C          0.57330       -0.64110        1.15180
O          1.04320        0.19230        2.19160
C          1.61440       -0.42930        3.25160
N          2.16880        0.25790        4.15030
H          0.82060        2.06310        0.30440
H         -0.13000        1.90810       -1.17460
H         -0.93820        1.92930        0.40280
H         -0.73860       -0.46470       -0.58550
H          1.51710       -1.53830       -0.67970
H          2.67100        0.54650        0.75880
H          0.08820       -1.54910        1.50110
H          1.51730       -1.52210        3.21850
H          2.52520       -0.34950        4.88510
