18
gdb 16670	3.13763	2.16037	1.56101	1.3891	66.78	-0.2391	0.0695	0.3087	863.2313	0.153725	-384.925245	-384.917485	-384.916541	-384.957225	29.641
C          0.13060        1.57260       -0.11430
C          0.08510        0.06330        0.01540
O          0.73780       -0.53320       -1.12170
C          1.19760       -1.80510       -0.75030
C          2.56900       -1.81820       -0.14190
C          1.33100       -1.85810        0.74470
C          0.78010       -0.53450        1.27580
O          1.73330        0.31400        1.89260
H          1.16150        1.93230       -0.09620
H         -0.33670        1.88450       -1.05220
H         -0.40650        2.03970        0.71620
H         -0.96280       -0.27920        0.02570
H          0.82740       -2.62720       -1.35550
H          3.16080       -2.72620       -0.18840
H          3.14480       -0.90240       -0.24010
H          1.14520       -2.76550        1.30560
H          0.02840       -0.71950        2.04940
H          2.56620        0.22350        1.41900
