12
gdb 3782	8.12202	2.03395	1.64716	5.3308	54.6	-0.2211	-0.0114	0.2097	709.3096	0.089811	-356.669324	-356.662567	-356.661623	-356.700111	23.263
C         -0.04250        1.47360        0.06840
N          0.10430        0.02880       -0.01960
C          0.63690       -0.70000        0.98980
C          0.68340       -2.06980        1.19770
N          1.38390       -2.25580        2.34660
N          1.77100       -1.20270        2.87690
O          1.26670       -0.07860        1.96200
H          0.91020        1.92010        0.35940
H         -0.32070        1.85630       -0.91550
H         -0.80340        1.77980        0.79800
H         -0.53040       -0.46390       -0.62570
H          0.28220       -2.88170        0.61740
