18
gdb 19094	3.53528	2.70195	2.70077	0.127	73.21	-0.2478	0.083	0.3308	674.5466	0.15762	-310.600894	-310.595743	-310.594798	-310.629628	23.343
C         -0.01730        1.53400        0.09530
C          1.52250        1.47990       -0.03190
C          2.20650        0.78240        1.21200
C          1.17690        0.31640        2.26680
C          0.67570       -0.70480        1.21990
C         -0.00840       -0.00740       -0.02400
C          1.39440        0.07650       -0.72840
C          2.06490       -0.60710        0.49080
H         -0.46980        2.00430        0.97430
H         -0.45490        1.97960       -0.80420
H          2.06090        2.32610       -0.46010
H          3.15750        1.20790        1.53410
H          1.68480       -0.20210        3.08670
H          0.47510        1.04090        2.69250
H          0.22460       -1.64150        1.54930
H         -0.87200       -0.52330       -0.44490
H          1.57520       -0.11520       -1.78530
H          2.82380       -1.38840        0.48520
