15
gdb 19522	3.80166	1.8503	1.70207	1.4609	59.35	-0.2482	0.0053	0.2535	802.219	0.120453	-399.779548	-399.772747	-399.771803	-399.811312	25.352
O          0.15270        1.16610       -0.50710
C          0.03440       -0.00230        0.29130
C         -1.34590       -0.62200        0.20440
C         -1.89260       -1.15940       -1.08770
O         -0.92820       -1.49720       -2.08510
C         -0.20950       -2.52420       -1.54930
N         -0.51990       -2.95320       -0.39430
C         -1.61090       -2.11940        0.05770
H          0.03220        0.89330       -1.42310
H          0.80570       -0.74110        0.03930
H          0.22350        0.31670        1.32050
H         -2.10810       -0.11580        0.79060
H         -2.84770       -0.87350       -1.50820
H          0.58850       -2.89640       -2.17980
H         -2.35950       -2.59780        0.67680
