14
gdb 17220	5.5841	1.68318	1.54072	1.4033	68.63	-0.2284	0.0319	0.2602	818.8307	0.106645	-345.298267	-345.29195	-345.291006	-345.328461	25.268
C          0.06280       -1.15220       -0.06020
C          0.00140        0.04980       -0.01410
C         -0.06820        1.46410        0.04650
C         -1.13850        2.35920        0.68750
C         -0.42330        3.52250       -0.03970
O          0.86640        3.60660        0.63790
C          1.19170        2.38810       -0.01080
C          0.16760        2.49620       -1.07650
H          0.11400       -2.21180       -0.09920
H         -2.12350        2.15390        0.26240
H         -1.18730        2.42210        1.77830
H         -0.88310        4.48910       -0.22760
H          2.20640        2.01500        0.01080
H          0.17430        2.39880       -2.15270
