11
gdb 8607	2.12076	2.12017	1.51329	3.6516	59.59	-0.3695	-0.0412	0.3282	866.7305	0.070795	-356.456071	-356.448082	-356.447138	-356.488437	27.221
C         -0.01910        1.55040        0.01050
C          0.00210       -0.01000        0.00190
C          0.71640       -0.50520        1.19830
N          1.28030       -0.85030        2.14370
C         -1.38320       -0.52710        0.01230
N         -2.47860       -0.88900        0.02140
C          0.69340       -0.49240       -1.21310
N          1.23950       -0.82690       -2.17270
H          1.00620        1.92250        0.00290
H         -0.54740        1.90610       -0.87490
H         -0.53060        1.89640        0.90950
