12
gdb 21825	6.11848	1.49006	1.19824	0.7562	58.3	-0.2358	-0.0095	0.2264	902.5544	0.086425	-410.864265	-410.857834	-410.85689	-410.895268	23.147
O         -0.28920        0.05060        0.00130
C         -0.07930        1.24470        0.00820
N          1.16080        1.81450        0.00050
C          2.35660        1.10610       -0.01560
C          2.59890       -0.24890       -0.02820
N          3.95540       -0.30380       -0.04110
N          4.51430        0.91270       -0.03650
N          3.53810        1.77900       -0.02090
H         -0.88010        2.00630        0.02130
H          1.24900        2.81990        0.00740
H          1.94960       -1.10340       -0.02890
H          4.54970       -1.11740       -0.05290
