18
gdb 11509	4.83458	1.09112	0.94699	4.4142	72.94	-0.2294	0.0301	0.2595	1222.8012	0.153278	-343.96965	-343.96092	-343.959976	-344.003455	31.684
C          0.06750        1.52390        0.37900
C          0.02370        0.01970        0.03150
N          0.73870       -0.88550        0.93080
C          2.17410       -0.79690        0.89120
C          2.99270        0.19460        1.70020
C          2.97350       -1.27580        2.06260
C         -1.37800       -0.42790       -0.06290
N         -2.48640       -0.74840       -0.12080
H          1.10280        1.86970        0.39190
H         -0.48920        2.10800       -0.35930
H         -0.37770        1.70370        1.36220
H          0.46510       -0.11650       -0.96460
H          0.38340       -0.80690        1.87760
H          2.56270       -1.04920       -0.09280
H          3.89420        0.61130        1.26310
H          2.45910        0.87250        2.35790
H          2.43000       -1.56490        2.95690
H          3.85700       -1.87530        1.87530
