14
gdb 12617	3.31379	2.06381	1.35929	5.0038	64.77	-0.232	-0.0935	0.1385	872.2613	0.106814	-382.582456	-382.575204	-382.57426	-382.614233	26.317
C         -0.10590        1.58410        0.01380
C          0.01660        0.05260       -0.01160
C          0.82350       -0.50480       -1.16090
C          1.85320       -1.28510       -0.79380
C          1.92940       -1.39140        0.67420
O          2.70130       -2.01220        1.36200
C          0.76590       -0.50040        1.20620
O          0.53200       -0.27710        2.36170
H          0.88040        2.05780       -0.00090
H         -0.67140        1.94560       -0.85000
H         -0.62170        1.89630        0.92510
H         -0.99580       -0.37600       -0.01730
H          0.56820       -0.27060       -2.19020
H          2.55090       -1.78210       -1.45570
