10
gdb 3029	16.52703	1.03901	1.03256	4.5482	62.46	-0.2879	-0.0606	0.2274	1036.4911	0.066378	-322.130736	-322.124301	-322.123357	-322.1615	21.695
N          0.03460       -3.71600       -0.05880
C          0.03120       -2.55460       -0.03090
C          0.02430       -1.19030        0.00400
C          0.02010        0.01730        0.04360
C         -0.01150        1.45240        0.06770
C          0.52250        2.21010        1.22090
O          1.24850        2.13170        0.00340
H         -0.80250        1.90710       -0.52700
H          0.08340        3.17920        1.45130
H          0.94790        1.66380        2.05980
