17
gdb 8548	4.0942	2.29573	1.89533	0.8025	67.17	-0.2109	0.0643	0.2752	758.104	0.143114	-363.794148	-363.787746	-363.786802	-363.824214	25.95
C          0.04220        1.55590        0.12130
C         -0.08000        0.06750       -0.04160
C          0.31980       -0.65790       -1.34510
N         -0.75940       -1.69520       -1.15980
C         -0.33210       -2.67450       -0.09360
C         -0.61790       -1.65180        1.01880
O          0.43580       -0.66550        1.10780
C         -1.35590       -0.81870       -0.05210
H          1.09830        1.84210        0.18170
H         -0.40570        2.07790       -0.73000
H         -0.45090        1.88860        1.03930
H          0.10070       -0.06670       -2.24110
H          1.34090       -1.04620       -1.40300
H         -1.03250       -3.51670       -0.07920
H          0.69200       -3.04910       -0.17950
H         -0.97930       -1.96420        2.00120
H         -2.39960       -0.51200       -0.08900
