15
gdb 4862	6.65257	1.34857	1.13726	0.3393	64.69	-0.2116	0.0281	0.2397	1034.6631	0.118993	-399.835999	-399.828262	-399.827318	-399.86823	27.162
C          0.04150        1.31780       -0.03000
O         -0.06630       -0.10820       -0.10000
C         -1.30420       -0.57050       -0.01490
N         -2.41710        0.07360        0.12000
C         -3.36880       -0.95110        0.14810
C         -2.76690       -2.15400        0.02820
C         -3.21290       -3.56630       -0.01200
O         -1.40230       -1.91100       -0.08020
H          1.10610        1.53620       -0.11170
H         -0.51160        1.78480       -0.84960
H         -0.35560        1.68600        0.91990
H         -4.42080       -0.73780        0.25420
H         -2.93420       -4.05370       -0.95350
H         -2.77650       -4.15420        0.80380
H         -4.30060       -3.60730        0.08330
