15
gdb 15764	4.39813	1.14881	0.94261	3.7177	73.78	-0.2497	-0.0328	0.217	1220.8836	0.117127	-362.633043	-362.624331	-362.623387	-362.668506	29.022
C          0.02380        1.40880        0.04280
C          0.06830       -0.04100       -0.03970
C          0.09400       -1.24450       -0.10960
C          0.07590       -2.69150       -0.15610
O         -0.90220       -3.35510        0.11620
N          1.27080       -3.25080       -0.61130
C          2.54140       -3.14270        0.08200
C          1.82170       -4.45530       -0.03610
H          0.99130        1.85590       -0.20800
H         -0.72480        1.81270       -0.64740
H         -0.24910        1.73320        1.05280
H          3.40670       -2.93540       -0.54120
H          2.54510       -2.65470        1.05340
H          1.32460       -4.84910        0.84620
H          2.17290       -5.20120       -0.74310
