14
gdb 18785	3.94007	2.34924	1.9398	3.462	60.56	-0.2323	-0.0317	0.2006	704.8496	0.108327	-382.496435	-382.490703	-382.489759	-382.52623	22.651
O          0.02030        0.02750       -0.11800
C         -0.00950        1.21580        0.01170
C         -1.14540        2.25440        0.00870
C         -1.29460        2.95410        1.39730
C          0.01340        3.72930        1.13120
O          1.17920        2.89590        1.34190
C          1.07340        2.32550        0.01530
C         -0.05020        3.33730       -0.37110
H         -2.04360        2.01730       -0.56000
H         -2.15580        3.63020        1.38350
H         -1.33370        2.33060        2.29360
H          0.14920        4.72620        1.55320
H          2.04090        2.16550       -0.46370
H         -0.06410        3.98440       -1.24170
