18
gdb 16429	3.38041	2.17055	1.67914	1.3945	71.79	-0.252	0.0731	0.3251	838.7518	0.153655	-347.732402	-347.725211	-347.724267	-347.763233	28.72
C         -0.16710        1.61170       -0.02400
C         -0.04620        0.09510        0.00320
C          1.17850       -0.59240       -0.64740
C          2.13750       -0.28610        0.55340
C          2.57130       -1.76060        0.68150
C          1.07960       -1.83860        0.29990
C          0.71030       -0.59630        1.16230
O          0.36730       -0.69270        2.49840
H          0.78280        2.09880        0.22200
H         -0.47390        1.96700       -1.01360
H         -0.91920        1.96060        0.69330
H         -1.00390       -0.38210       -0.24220
H          1.46870       -0.61760       -1.69620
H          2.73190        0.61770        0.69380
H          3.28880       -2.12730       -0.05920
H          2.83730       -2.10800        1.68370
H          0.44200       -2.70930        0.13980
H          0.37990        0.19100        2.88180
