22
gdb 6542	2.65097	1.80856	1.59294	1.2321	77.25	-0.236	0.0687	0.3046	979.964	0.196969	-350.19542	-350.185467	-350.184523	-350.229764	37.757
C          0.12250        1.53190        0.22240
C          0.02410        0.01230        0.00550
C          0.60000       -0.70490        1.24420
C         -1.46020       -0.36890       -0.17430
C          0.80080       -0.45600       -1.23340
O          0.65350       -1.85590       -1.35220
C          0.87630        0.34120       -2.50810
C          2.11950        0.13760       -1.65140
H          1.15290        1.86360        0.38300
H         -0.29700        2.09970       -0.61370
H         -0.44710        1.80630        1.11600
H          0.04180       -0.42310        2.14330
H          0.54600       -1.78910        1.12840
H          1.64960       -0.43310        1.40050
H         -1.89340        0.14410       -1.03980
H         -1.57190       -1.44380       -0.32860
H         -2.03840       -0.08270        0.71070
H          1.14150       -2.15310       -2.12550
H          0.80560       -0.21020       -3.44130
H          0.44580        1.33450       -2.55550
H          2.52240        0.99420       -1.12410
H          2.87920       -0.54970       -2.01230
