16
gdb 14914	4.87208	1.46138	1.19414	1.8102	66.74	-0.2597	0.0322	0.2919	980.7204	0.130953	-383.701841	-383.69462	-383.693676	-383.733214	27.573
C          0.03160       -1.19710       -0.03770
C          0.04480        0.00320       -0.00600
C          0.01290        1.45900        0.05200
C         -0.72740        1.98900        1.29580
C         -0.57820        3.51160        1.34170
O          0.79080        3.88240        1.25090
C          1.37590        3.35800        0.09120
O          1.35490        1.95290        0.05060
H          0.03210       -2.25870       -0.07220
H         -0.50200        1.83920       -0.84930
H         -1.78270        1.70060        1.25980
H         -0.27590        1.54250        2.18620
H         -1.14630        3.97250        0.51500
H         -0.95380        3.92390        2.28140
H          0.86350        3.76320       -0.80390
H          2.42560        3.65630        0.09450
