16
gdb 4176	3.48744	1.82162	1.35611	1.9694	68.79	-0.2314	0.008	0.2394	911.5571	0.130034	-379.828259	-379.820641	-379.819697	-379.859948	28.845
C         -0.04540        1.60820       -0.05430
C          0.04170        0.08840        0.00530
C          0.69980       -0.67190       -1.17320
N          2.09690       -0.21040       -1.24510
C          1.72410       -1.28690       -0.26690
C          1.10760       -0.58140        0.89150
N          1.33540       -0.69540        2.13100
O          0.44180        0.09720        2.88150
H          0.91700        2.03180       -0.35020
H         -0.80220        1.92400       -0.78050
H         -0.31840        2.01010        0.92460
H         -0.93160       -0.35220        0.25220
H          0.20220       -1.10900       -2.02940
H          2.53390       -0.68630       -2.03520
H          2.20800       -2.25390       -0.29070
H          0.72710       -0.07890        3.78430
