14
gdb 10446	2.87394	1.70788	1.26696	5.8236	65.95	-0.3073	0.0062	0.3135	952.9436	0.107224	-341.599582	-341.591855	-341.590911	-341.632133	27.513
N         -0.21790       -1.04500       -0.55600
C         -0.09170        0.02930       -0.15160
C          0.06640        1.39820        0.34300
C          1.46810        1.96340        0.10470
C          1.82940        2.45810       -1.28650
C          1.60420        3.45140       -0.18750
C          2.51220        1.35060        0.88740
N          3.34570        0.86730        1.52710
H         -0.66640        2.03440       -0.16450
H         -0.17540        1.42130        1.41090
H          2.84230        2.28540       -1.62800
H          1.06770        2.34200       -2.04930
H          0.68860        4.03240       -0.18810
H          2.46330        3.96030        0.23180
