20
gdb 20166	3.15618	2.63623	1.90944	0.19	76.44	-0.2633	0.0772	0.3405	792.4787	0.181081	-311.85992	-311.853663	-311.852719	-311.89022	26.227
C         -0.01640        1.55940       -0.00670
C          1.52770        1.57650       -0.03750
C          2.20240        1.35250        1.34510
C          2.18360       -0.19830        1.13270
C          1.18920       -1.01090        1.96710
C         -0.21940       -0.64570        1.42630
C         -0.00930       -0.00290        0.03150
C          1.52940        0.02340       -0.25800
H         -0.50630        2.07310        0.82860
H         -0.44270        1.93860       -0.94000
H          2.01190        2.29030       -0.70530
H          3.21750        1.75480        1.39240
H          1.64950        1.72950        2.21250
H          3.18350       -0.63840        1.13040
H          1.38170       -2.07980        1.81460
H          1.28950       -0.82240        3.04150
H         -0.85710       -1.53280        1.36840
H         -0.73060        0.05590        2.09400
H         -0.63640       -0.46540       -0.73290
H          1.91550       -0.48130       -1.14340
