16
gdb 2089	4.89946	2.49823	1.77206	1.801	62.09	-0.238	0.0338	0.2718	732.4653	0.138387	-325.804486	-325.797758	-325.796814	-325.835036	24.813
C          0.00220        1.47670        0.05920
C         -0.03340       -0.01780       -0.07290
N         -0.05400       -0.59180       -1.20360
C         -0.02950       -2.04970       -1.26080
C          0.46910       -2.69760        0.03400
C         -0.23010       -2.01880        1.20270
O         -0.03520       -0.59990        1.16280
H          0.87900        1.78380        0.63860
H          0.03710        1.92970       -0.93050
H         -0.88120        1.83260        0.59930
H         -1.04070       -2.40740       -1.50090
H          0.60160       -2.34290       -2.10720
H          0.27150       -3.77450        0.04850
H          1.55180       -2.55790        0.13110
H         -1.30920       -2.22430        1.17950
H          0.15780       -2.34390        2.17130
