20
gdb 7378	4.00322	1.04192	0.93242	1.6588	72.5	-0.2409	-0.0113	0.2296	1323.2874	0.173424	-386.155318	-386.144983	-386.144039	-386.191474	35.09
C         -0.03050        1.38630        0.00910
O          0.03390       -0.01940        0.00700
C          0.63310       -0.53790       -1.16210
C          0.61700       -2.06350       -1.06920
C         -0.82630       -2.60700       -1.02140
C          1.36710       -2.67910       -2.24900
C          1.94750       -4.06640       -2.04080
O          1.49140       -2.08810       -3.29890
H          0.97130        1.84120       -0.04620
H         -0.62570        1.76990       -0.83470
H         -0.50540        1.69180        0.94480
H          0.09110       -0.21020       -2.06200
H          1.66780       -0.17160       -1.26090
H          1.12250       -2.35810       -0.14040
H         -0.84950       -3.68980       -0.86930
H         -1.36450       -2.13030       -0.19980
H         -1.35160       -2.38150       -1.95550
H          1.21840       -4.74200       -1.58260
H          2.29190       -4.47340       -2.99220
H          2.79630       -4.00090       -1.34920
