12
gdb 3686	7.51908	2.16795	1.70292	1.8952	52.17	-0.2359	-0.005	0.2308	697.688	0.09111	-356.712023	-356.705546	-356.704602	-356.74262	22.978
C         -0.00650        1.45980       -0.03430
C         -0.06670       -0.02290        0.05340
N         -1.08200       -0.79880       -0.18450
C         -0.54910       -2.04690        0.06220
N         -1.32190       -3.17600       -0.01510
N          0.71470       -2.05450        0.41980
O          1.03680       -0.67650        0.42060
H          0.76710        1.77270       -0.74170
H         -0.97320        1.84140       -0.36160
H          0.24220        1.89190        0.93970
H         -2.10450       -3.09520       -0.64570
H         -0.80770       -4.03960       -0.10150
