16
gdb 9076	5.99391	0.91679	0.83976	3.4244	68.46	-0.2763	0.0029	0.2792	1308.9507	0.127518	-383.729828	-383.720753	-383.719808	-383.764412	31.321
C          0.15890        1.47050        0.19810
C          0.02660       -0.05460        0.02980
C          0.76440       -0.82840        1.13820
O          2.16500       -0.54840        1.07110
C          2.78180       -0.07310        2.17140
O          3.94840        0.17470        2.20010
C         -1.37130       -0.47920        0.01000
C         -2.52050       -0.83070        0.02790
H          1.21150        1.76330        0.18350
H         -0.35600        1.98960       -0.61340
H         -0.28660        1.79620        1.14350
H          0.49340       -0.34000       -0.92200
H          0.36500       -0.55290        2.12260
H          0.63160       -1.90480        1.00000
H          2.09030        0.05650        3.02690
H         -3.53670       -1.13940        0.02530
