18
gdb 16155	4.23242	1.62911	1.38139	1.3515	72.58	-0.2248	0.0243	0.2491	932.6105	0.154712	-347.795505	-347.78808	-347.787136	-347.827054	28.885
O         -0.04960        1.34310        0.43090
C         -0.01130       -0.00420       -0.02970
C         -1.41620       -0.53250       -0.05650
C         -2.00260       -1.11560        1.20370
C         -1.71110       -2.02590        0.02500
C         -2.85980       -2.25050       -0.90020
C         -3.26420       -1.11340       -1.47130
C         -2.40100        0.06420       -1.06930
H          0.83290        1.71490        0.33930
H          0.42450       -0.05710       -1.04110
H          0.61050       -0.63230        0.62890
H         -1.34210       -1.17730        2.06300
H         -3.04240       -0.91800        1.44340
H         -0.92360       -2.76700        0.11670
H         -3.31680       -3.22370       -1.04010
H         -4.11700       -1.01180       -2.13320
H         -2.98600        0.88720       -0.64190
H         -1.86970        0.48710       -1.93380
