14
gdb 567	9.2142	2.40798	2.08586	2.1966	49.83	-0.247	0.0697	0.3167	615.1353	0.119168	-307.528446	-307.522006	-307.521062	-307.558945	21.718
C          0.14810        1.39530        0.03150
O         -0.27240        0.07070       -0.21490
C          0.50480       -0.58670       -1.17410
C          1.85400       -1.20370       -0.72360
O          1.41770       -2.51890       -1.12450
C          0.08260       -2.04540       -1.40090
H          1.17000        1.43490        0.43800
H          0.11700        2.00640       -0.88400
H         -0.53800        1.82190        0.76650
H          0.58230        0.01320       -2.09230
H          2.75910       -0.89170       -1.25730
H          2.01950       -1.13170        0.35990
H         -0.64750       -2.38870       -0.65720
H         -0.25450       -2.32120       -2.40590
