17
gdb 7810	3.44971	1.72988	1.21704	2.0608	66.03	-0.2585	0.0189	0.2774	967.4053	0.14376	-401.017076	-401.009588	-401.008644	-401.048849	28.443
O         -0.06540        1.44960       -0.00310
C         -0.01070        0.03360        0.02640
C         -1.43790       -0.49260       -0.03020
C         -1.41840       -2.01560       -0.03660
O         -0.60240       -2.57310       -1.07930
C          0.63490       -2.03620       -1.30830
N          1.60110       -2.74340       -1.71850
C          0.76490       -0.53600       -1.16660
H          0.83660        1.78640        0.00710
H          0.45820       -0.31260        0.96350
H         -2.01400       -0.13770        0.83010
H         -1.92200       -0.11100       -0.93640
H         -1.05410       -2.39530        0.92870
H         -2.41630       -2.42720       -0.20300
H          1.30850       -3.72120       -1.78490
H          0.35320       -0.07280       -2.07320
H          1.82920       -0.29310       -1.12420
