19
gdb 12077	3.50043	1.74434	1.54858	2.0772	71.4	-0.2267	0.0868	0.3135	922.6785	0.164501	-365.003682	-364.995532	-364.994588	-365.035809	31.114
C          0.08880        1.33880       -0.07080
O         -0.01670       -0.04630        0.16870
C         -1.30860       -0.59220        0.05230
C         -2.26330       -0.07770        1.13060
C         -1.97570       -0.61020       -1.38720
C         -1.99870       -2.13770       -1.29130
N         -0.57750       -2.54760       -1.21240
C         -1.28640       -2.12460        0.01640
H          1.15550        1.57650       -0.08070
H         -0.34080        1.62320       -1.04280
H         -0.39380        1.94460        0.71000
H         -2.48930        0.98450        0.99680
H         -3.21030       -0.62450        1.09870
H         -1.81780       -0.21440        2.12150
H         -2.95870       -0.13510       -1.40800
H         -1.35290       -0.22850       -2.19870
H         -2.76060       -2.81610       -1.65360
H         -0.55750       -3.56750       -1.19380
H         -1.36700       -2.78680        0.87090
