13
gdb 10007	2.63385	1.28406	0.90328	4.0024	68.62	-0.2705	-0.0576	0.2128	1224.8997	0.092338	-361.450791	-361.441733	-361.440789	-361.486576	29.126
C         -0.06560        1.46120        0.03670
C          0.01720        0.00990       -0.00810
C          0.10860       -1.18910       -0.04740
C          0.13350       -2.64880       -0.07570
C         -1.32300       -3.16460        0.12520
O         -1.65690       -3.80380        1.07810
C          0.65720       -3.17480       -1.34330
N          1.03270       -3.61370       -2.34370
H          0.74310        1.88180        0.64320
H          0.00940        1.88900       -0.96840
H         -1.01600        1.78760        0.47170
H          0.72560       -3.05630        0.75190
H         -2.01690       -2.85660       -0.68140
