17
gdb 12316	3.11772	2.11952	1.31913	3.7195	71.61	-0.2382	-0.0247	0.2135	927.6248	0.144123	-363.921701	-363.914137	-363.913193	-363.953407	28.466
C          0.01910        1.49800        0.06830
C         -0.02430       -0.00040       -0.01300
C         -1.14480       -0.72800        0.07080
C         -1.14180       -2.23150        0.00930
C          0.07280       -2.73370       -0.77060
N          1.26800       -2.04110       -0.31160
C          1.30560       -0.67920       -0.13240
O          2.35810       -0.06860       -0.03540
H          0.66450        1.81970        0.89110
H          0.45130        1.92720       -0.84200
H         -0.98140        1.91400        0.21170
H         -2.10040       -0.23090        0.22390
H         -1.13190       -2.64120        1.03010
H         -2.05810       -2.60080       -0.46330
H          0.21150       -3.80840       -0.62180
H         -0.09310       -2.56870       -1.84730
H          2.16980       -2.44510       -0.51940
