20
gdb 9964	2.53353	1.62469	1.45574	1.2055	71.22	-0.241	0.0697	0.3107	1024.0558	0.174239	-386.124543	-386.114781	-386.113837	-386.158515	35.919
C         -0.23230        1.56130       -0.07690
C          0.09010        0.06840        0.06890
C          0.72700       -0.51700       -1.17610
O          1.94690        0.08080       -1.55090
C          0.69830       -1.99720       -1.47470
C          0.04140       -3.01590       -0.56940
C         -0.12830       -1.02490       -2.31060
O         -1.51690       -0.96120       -2.14120
H          0.67180        2.15080       -0.26630
H         -0.93430        1.72960       -0.90000
H         -0.68570        1.95400        0.83780
H          0.77430       -0.08380        0.91280
H         -0.83080       -0.47440        0.29260
H          1.75320        0.96760       -1.87430
H          1.60390       -2.33880       -1.96850
H         -0.95390       -2.69500       -0.25280
H         -0.07030       -3.97480       -1.08800
H          0.63990       -3.19740        0.32950
H          0.22570       -0.81040       -3.31920
H         -1.90360       -1.75180       -2.53270
