15
gdb 13052	4.14474	1.30729	1.04109	4.9921	62.53	-0.2477	-0.0238	0.2239	1068.3371	0.118061	-399.82685	-399.818847	-399.817903	-399.860287	27.559
O         -0.62290        0.57040        0.67290
C          0.13510        0.88160       -0.20970
C          1.30530        1.83390       -0.02070
C          1.33340        2.92650       -1.09130
C          2.61080        3.81720       -1.19550
N          2.77630        3.30330       -2.55780
C          1.69600        2.45910       -2.52930
O          1.25040        1.66320       -3.31330
H          0.02790        0.48310       -1.24020
H          1.24950        2.25530        0.98750
H          2.22720        1.23780       -0.08970
H          0.41120        3.51410       -1.07470
H          2.43840        4.89600       -1.13810
H          3.41710        3.53600       -0.51020
H          3.49290        3.44780       -3.25350
