20
gdb 9752	3.16107	1.61065	1.47255	1.6035	75.71	-0.2379	0.0161	0.2539	978.602	0.17725	-349.016525	-349.008088	-349.007144	-349.049125	32.219
C         -0.03980        1.57280       -0.01050
C         -0.02540        0.03760       -0.00480
C         -1.47970       -0.49080       -0.03720
O         -2.23710       -0.13930        1.11050
C          0.78360       -0.56980       -1.19070
C          1.57180       -1.77520       -0.61430
C          1.55260       -1.51210        0.87240
C          0.70690       -0.53650        1.19750
H          0.97000        1.97760        0.10950
H         -0.44790        1.95300       -0.95420
H         -0.66720        1.95360        0.80060
H         -2.00950       -0.04790       -0.88870
H         -1.46920       -1.58200       -0.18380
H         -1.87170       -0.62610        1.85620
H          0.13820       -0.84960       -2.02980
H          1.48510        0.18200       -1.56600
H          1.09140       -2.73570       -0.84700
H          2.58810       -1.84150       -1.01930
H          2.15280       -2.08090        1.57490
H          0.52640       -0.17740        2.20620
