15
gdb 15131	6.52373	0.74022	0.70515	1.3399	72.98	-0.2405	-0.0333	0.2072	1541.3085	0.117262	-362.610872	-362.602311	-362.601367	-362.646533	28.665
O         -0.11850        1.27140        1.32300
C          0.03110        1.53450        0.16150
C          1.39280        1.54300       -0.53900
C          1.52290        2.64560       -1.47930
C          1.57410        3.57870       -2.24170
C          1.68190        4.67810       -3.15810
C          0.93220        5.94440       -2.89270
N          2.38950        5.91860       -2.75250
H         -0.82380        1.78460       -0.50360
H          2.17330        1.55200        0.22900
H          1.48060        0.58370       -1.07230
H          1.86630        4.40470       -4.19380
H          0.56120        6.52180       -3.73460
H          0.31520        5.98000       -1.99990
H          2.63810        5.84620       -1.76860
