17
gdb 5941	4.57195	1.16586	1.14805	6.1058	64.54	-0.2762	0.0314	0.3076	1078.269	0.139747	-401.012653	-401.003341	-401.002396	-401.04635	33.493
C          0.02310        1.55220        0.06550
C         -0.00560        0.01900        0.00430
O          0.63510       -0.54540        1.13790
C         -1.45290       -0.50010       -0.04680
O         -2.04400       -0.15230        1.19930
C          0.75530       -0.52430       -1.22380
C          2.13750       -0.05730       -1.29990
N          3.22780        0.31590       -1.38110
H          1.05090        1.90200        0.18290
H         -0.39760        1.99630       -0.84320
H         -0.56770        1.89830        0.91690
H          0.01910       -0.42890        1.87280
H         -1.99850       -0.04720       -0.88820
H         -1.43910       -1.59060       -0.18420
H         -2.85370       -0.65710        1.31240
H          0.76230       -1.61820       -1.17780
H          0.23880       -0.23060       -2.14440
