22
gdb 11080	2.40189	2.0444	1.99088	0.1261	81.29	-0.2508	0.0801	0.3308	915.556	0.199869	-313.060386	-313.051848	-313.050903	-313.093594	33.177
C         -0.25780        1.54010        0.06630
C         -0.00780        0.04860        0.01360
C          1.08360       -0.45390       -0.97800
C          1.82090       -1.19150        0.17830
C          0.69930       -0.78510        1.16980
C          1.10980       -0.21110        2.50840
C         -0.50760       -1.77010        1.15950
C         -1.23440       -0.89750        0.09410
H          0.67670        2.10410        0.16790
H         -0.75000        1.88520       -0.85220
H         -0.90570        1.81210        0.90760
H          0.71040       -1.09290       -1.78400
H          1.66900        0.35070       -1.43190
H          1.97970       -2.26690        0.05170
H          2.78500       -0.73510        0.42250
H          1.84150        0.59700        2.39470
H          0.25030        0.19090        3.05750
H          1.56880       -0.98340        3.13910
H         -0.26320       -2.79010        0.84800
H         -1.03510       -1.82890        2.11570
H         -2.12450       -0.40060        0.49200
H         -1.51540       -1.39540       -0.83910
