15
gdb 13734	3.17824	1.64558	1.34603	5.8626	66.78	-0.2616	-0.034	0.2276	950.3089	0.117562	-362.687093	-362.678941	-362.677997	-362.720276	28.702
C         -0.44450        1.34460        0.05720
C          0.01970       -0.09440        0.11920
O          0.34330       -0.63580        1.15160
C          0.05470       -0.83570       -1.19010
C          0.89000       -2.08470       -1.26940
C         -0.60830       -2.22320       -1.26770
C         -1.30720       -2.78340       -0.14330
N         -1.90930       -3.26490        0.71850
H          0.21420        1.92740       -0.59740
H         -1.45050        1.39780       -0.37490
H         -0.44790        1.77800        1.05740
H         -0.06370       -0.23640       -2.08610
H          1.41040       -2.30410       -2.19360
H          1.40010       -2.35190       -0.35140
H         -1.08190       -2.44590       -2.21830
