19
gdb 7954	2.7313	1.90471	1.41924	2.5073	70.94	-0.2107	-0.017	0.1936	959.5851	0.164857	-365.081091	-365.072763	-365.071818	-365.114022	31.09
C          0.71130        1.56560       -0.08160
C         -0.01210        0.22850        0.09950
C          0.27930       -0.75810       -1.05120
C          1.48610       -1.55090       -0.54720
O          2.21640       -2.25440       -1.19370
C          1.60380       -1.26720        0.96100
N          0.44760       -0.45340        1.33910
C         -0.60320       -1.22300        1.99520
H          1.79130        1.42430       -0.20160
H          0.34490        2.08680       -0.97230
H          0.55190        2.20400        0.79100
H         -1.08400        0.42090        0.19590
H         -0.54810       -1.46390       -1.19440
H          0.48660       -0.29760       -2.01980
H          1.65540       -2.20280        1.52460
H          2.55050       -0.73760        1.13560
H         -0.21260       -1.66060        2.91880
H         -1.42680       -0.55640        2.26820
H         -1.02130       -2.04600        1.38500
