16
gdb 16077	3.35228	1.79461	1.47226	1.2792	60.33	-0.2309	0.0533	0.2841	891.5665	0.12894	-420.802439	-420.794597	-420.793653	-420.834695	28.708
C          0.04520        1.36240       -0.22390
O         -0.01330        0.02570        0.26080
C         -1.24780       -0.55460        0.12150
C         -2.36710       -0.52590        1.16350
O         -2.73460       -1.90090        0.83530
C         -1.61180       -2.01910       -0.05390
C         -1.81950       -1.06540       -1.19310
O         -3.09240       -0.76030       -1.66560
H          1.07880        1.69440       -0.10850
H         -0.24030        1.41540       -1.28240
H         -0.61110        2.03000        0.35080
H         -1.99420       -0.46670        2.19070
H         -3.19730        0.17160        1.01060
H         -1.05490       -2.94880       -0.05240
H         -1.07530       -1.12970       -1.98320
H         -3.70840       -1.22370       -1.08150
