16
gdb 20857	5.07626	1.35362	1.1442	1.6497	66.89	-0.2752	-0.014	0.2613	1066.932	0.130308	-379.948191	-379.940124	-379.93918	-379.981478	28.044
C         -0.12340        1.56900       -0.04780
C         -0.01810        0.03960        0.05790
C         -1.35490       -0.62580        0.03130
N         -1.80480       -1.34200        1.02750
O         -3.07100       -1.75910        0.58390
C         -3.23650       -1.23890       -0.63910
C         -4.50670       -1.52560       -1.35570
N         -2.22310       -0.53230       -1.03960
H          0.87300        2.01920       -0.06820
H         -0.65170        1.85740       -0.96020
H         -0.66730        1.98380        0.80610
H          0.57210       -0.34480       -0.78220
H          0.49310       -0.25330        0.97890
H         -5.36380       -1.16130       -0.78160
H         -4.48860       -1.03530       -2.32870
H         -4.63610       -2.60320       -1.49470
