20
gdb 14241	5.26288	1.44881	1.26281	1.3854	77.47	-0.2004	0.0877	0.2882	1036.4535	0.17692	-345.121438	-345.113373	-345.112428	-345.153554	30.481
C         -0.04570        1.56770        0.12550
N          0.02160        0.12550        0.12980
C         -1.22430       -0.63050        0.40880
C         -0.43080       -1.56260        1.34720
C          0.73720       -0.54440        1.23940
C          1.62050       -1.72640        0.79030
N          0.40260       -2.56000        0.63810
C          0.43740       -3.91200        1.14370
H          0.95760        1.98810       -0.00390
H         -0.65800        1.90600       -0.71750
H         -0.47960        1.99730        1.05040
H         -1.97210       -0.03620        0.95990
H         -1.69200       -1.08560       -0.47060
H         -0.88990       -1.89620        2.28140
H          1.08340        0.10330        2.04910
H          2.20450       -1.59480       -0.12660
H          2.28010       -2.07520        1.60230
H          0.74260       -3.98350        2.20660
H         -0.55100       -4.37360        1.04410
H          1.14240       -4.50830        0.55420
