18
gdb 19729	3.91697	2.51217	2.2481	0.1837	74.74	-0.2278	0.0201	0.2479	710.0865	0.158467	-310.659307	-310.65397	-310.653026	-310.688228	23.917
C         -0.03500        1.57230        0.06170
C          1.50890        1.42660        0.00520
C          1.77850        0.80560        1.38190
C          0.86220       -0.47220        1.21440
C          1.76470       -1.51110        0.57540
C          2.04870       -1.10060       -0.66680
C          1.24780        0.13960       -0.92910
C          0.00540        0.03080        0.00320
H         -0.47030        2.06340        0.93710
H         -0.45840        1.99690       -0.85260
H          2.15760        2.23620       -0.32750
H          2.82070        0.53820        1.56810
H          1.43710        1.46580        2.18530
H          0.32550       -0.77670        2.11290
H          2.20950       -2.34350        1.10780
H          2.75420       -1.54590       -1.35730
H          1.05300        0.41590       -1.96570
H         -0.85440       -0.58270       -0.27210
