18
gdb 8229	5.42872	1.03755	1.00615	3.5171	69.96	-0.2391	0.0594	0.2985	1216.7394	0.155133	-381.154633	-381.146298	-381.145353	-381.188258	30.81
N          0.30700        1.31770       -0.06330
C          0.20830       -0.07190       -0.10050
O          1.18010       -0.79210       -0.23340
N         -1.07890       -0.53920        0.05320
C         -1.36640       -1.94240        0.19880
C         -1.92260       -2.49120        1.54390
C         -2.80700       -3.46330        0.71600
C         -2.61350       -2.53180       -0.51200
H          1.20320        1.63880       -0.39820
H         -0.47140        1.84720       -0.42800
H         -1.77760        0.10940        0.38180
H         -0.45640       -2.47050       -0.08890
H         -1.20950       -2.90680        2.25930
H         -2.53240       -1.73670        2.05390
H         -2.31860       -4.43070        0.57140
H         -3.82740       -3.63710        1.06220
H         -3.41590       -1.78840       -0.57610
H         -2.47490       -2.98140       -1.49800
