14
gdb 14014	4.78366	1.28638	1.18812	1.1652	59.39	-0.2664	-0.0507	0.2157	993.5169	0.105041	-419.63046	-419.623105	-419.622161	-419.662751	25.844
O         -0.65580        0.61200        0.69070
C          0.19100        0.91460       -0.10890
C          1.16130        2.03110        0.09370
O          2.39010        1.91260       -0.65720
C          1.49520        2.91850       -1.03610
C          0.89640        3.09870       -2.43000
O          1.16600        4.51550       -2.36250
C          1.80310        4.41250       -1.06990
H          0.32080        0.38270       -1.07780
H          1.25750        2.40410        1.11190
H          1.46160        2.59820       -3.22610
H         -0.17260        2.88650       -2.54650
H          1.31190        5.03490       -0.31330
H          2.87410        4.64690       -1.10580
