13
gdb 21283	7.12353	1.35252	1.14493	3.6185	55.85	-0.2143	0.0472	0.2615	970.385	0.096631	-431.95481	-431.947297	-431.946353	-431.986876	26.217
C         -0.01190        1.38840        0.00620
O         -0.02480       -0.04540        0.01500
C         -1.23410       -0.59520        0.00060
N         -2.37460        0.01730       -0.02000
N         -3.29110       -1.03220       -0.02720
C         -2.72400       -2.28310       -0.01160
O         -3.23690       -3.37910       -0.01310
N         -1.35280       -1.95820        0.00770
H          1.03980        1.67240        0.01890
H         -0.50350        1.76900       -0.89320
H         -0.52780        1.78000        0.88720
H         -4.27570       -0.83770       -0.04300
H         -0.60840       -2.63310        0.02010
