16
gdb 17415	4.26933	1.59386	1.53525	2.7398	64.86	-0.2462	0.0717	0.318	876.1046	0.129589	-383.669186	-383.662072	-383.661128	-383.700369	27.563
O         -0.05010        1.35550       -0.14700
C         -0.00540       -0.03650       -0.03460
C         -0.47580       -0.69260        1.24820
C         -1.32670       -0.72210        0.00480
C         -2.73100       -0.09110       -0.16130
C         -3.12760       -1.36460       -0.93520
O         -2.23900       -1.48880       -2.05070
C         -1.78540       -1.94620       -0.76780
H          0.67490        1.72020        0.37130
H          0.80260       -0.52070       -0.58400
H          0.00990       -1.60840        1.57200
H         -0.79440       -0.03460        2.05070
H         -3.26100        0.02010        0.78830
H         -2.78380        0.83850       -0.73110
H         -4.09860       -1.83850       -1.01650
H         -1.45240       -2.97500       -0.68960
