13
gdb 4448	3.6413	1.83171	1.22916	4.5532	56.94	-0.1789	0.0461	0.2251	898.6122	0.096363	-431.960013	-431.952291	-431.951346	-431.991595	28.526
N          0.10130        1.41580        0.12330
C         -0.02020        0.02330        0.02500
C         -1.08780       -0.79740        0.03220
O         -2.41180       -0.49920        0.12590
N         -0.61920       -2.12350       -0.04520
C          0.77410       -2.14170       -0.02050
O          1.51320       -3.10330        0.02720
N          1.11840       -0.79280       -0.05950
H          0.40430        1.84410       -0.74780
H         -0.78630        1.82580        0.38860
H         -2.83570       -0.63520       -0.73150
H         -1.14910       -2.93330        0.23170
H          2.05160       -0.48530        0.15710
