18
gdb 13072	3.79159	1.20473	1.00923	1.9421	76.85	-0.2418	0.03	0.2718	1216.0179	0.151999	-347.76296	-347.753715	-347.752771	-347.79911	31.429
C          0.14980        1.56530       -0.14910
C          0.08610        0.11670       -0.02560
C          0.03880       -1.08240        0.08350
C         -0.00670       -2.52930        0.20590
O          0.00580       -2.99850        1.58090
C         -1.26340       -3.66480        1.42620
C         -1.36920       -3.25550       -0.05780
C         -2.56980       -2.42290       -0.47420
H          1.04010        1.88080       -0.70400
H         -0.72760        1.95970       -0.67340
H          0.18710        2.04090        0.83710
H          0.83180       -2.96970       -0.35000
H         -1.18920       -4.74000        1.62970
H         -2.03290       -3.23180        2.07940
H         -1.23780       -4.10000       -0.73880
H         -2.70470       -1.56430        0.19000
H         -2.45290       -2.04050       -1.49310
H         -3.48330       -3.02680       -0.44420
