12
gdb 5467	3.60433	1.97645	1.27648	3.7723	65.26	-0.2216	-0.0183	0.2033	860.2639	0.085876	-377.572597	-377.565816	-377.564872	-377.603532	25.207
O          0.09600        1.35470        0.11250
C          0.05810        0.00810        0.04490
C          0.03050       -0.78740       -1.10010
N         -0.00410       -2.10830       -0.66960
C          0.00110       -2.14020        0.68710
C          0.03930       -0.84610        1.16900
C          0.03540       -0.38910       -2.44450
N          0.04120       -0.01290       -3.54400
H          0.10210        1.72070       -0.78030
H         -0.02900       -2.90500       -1.28140
H         -0.02260       -3.07790        1.21870
H          0.05250       -0.53980        2.20200
