18
gdb 16766	5.17517	1.43879	1.27903	0.8644	67.63	-0.2438	0.0937	0.3375	1003.7165	0.153617	-384.924071	-384.91652	-384.915576	-384.956099	28.56
C          0.04680        1.44600        0.16610
C          0.05040       -0.07860        0.03110
C          0.70760       -0.54630       -1.25050
O          2.08580       -0.18320       -1.27240
C          2.73280       -1.16560       -2.04570
C          3.10010       -2.43870       -1.31530
C          1.80530       -2.33610       -2.09100
O          0.67250       -1.96700       -1.34080
H          1.06750        1.83770        0.16600
H         -0.49430        1.91810       -0.66130
H         -0.43770        1.75200        1.09740
H          0.58450       -0.54370        0.86630
H         -0.97250       -0.47080        0.03940
H          0.20890       -0.11410       -2.13800
H          3.30710       -0.79360       -2.88710
H          3.89250       -3.04990       -1.73610
H          3.03160       -2.42690       -0.23380
H          1.60620       -2.93870       -2.97030
