14
gdb 20369	6.16221	1.40434	1.25732	4.1018	63.34	-0.2764	-0.0401	0.2362	938.8766	0.108292	-378.669807	-378.663344	-378.6624	-378.701012	23.892
C         -0.18330        1.35990       -0.27550
C          1.22130        1.07190        0.16220
C          0.21500       -0.06050        0.07900
C         -0.29620       -0.69210        1.30400
N         -0.57570       -1.96990        1.36250
O         -1.02090       -2.20420        2.63680
N         -1.01930       -1.06190        3.38070
C         -0.58050       -0.12780        2.58590
H         -0.83990        1.88400        0.41030
H         -0.36950        1.57490       -1.32140
H          2.01170        1.08670       -0.57930
H          1.53090        1.39790        1.14910
H          0.32830       -0.75720       -0.74300
H         -0.48120        0.88870        2.93390
