14
gdb 20630	4.0521	1.87494	1.29216	5.612	70.73	-0.2206	-0.0514	0.1693	897.147	0.108401	-374.885658	-374.87851	-374.877566	-374.917242	26.246
C          0.00970        1.51300       -0.02180
C         -0.07680        0.01870        0.01000
C         -1.19500       -0.71830       -0.13160
C         -1.10800       -2.16440       -0.07620
N         -2.12600       -2.92750       -0.20420
N          0.19890       -2.72940        0.13390
N          1.22410       -2.01390        0.26250
N          1.10720       -0.66320        0.20340
H          0.66740        1.85340       -0.83010
H         -0.97980        1.94460       -0.17920
H          0.41180        1.90540        0.91950
H         -2.16110       -0.25570       -0.28630
H         -1.81770       -3.89990       -0.12980
H          1.98710       -0.18710        0.31810
