19
gdb 2729	15.43624	0.78806	0.76786	2.0048	66.16	-0.2498	0.087	0.3367	1496.206	0.16934	-348.03123	-348.021914	-348.02097	-348.065825	30.719
C         -0.03570        1.35680        0.04390
O          0.00490       -0.04810        0.00650
C          0.65210       -0.54820       -1.14260
C          0.63840       -2.06910       -1.07870
C          1.31770       -2.70920       -2.28130
O          1.25590       -4.11070       -2.13430
C          1.85970       -4.79990       -3.20070
H          0.97470        1.79700        0.05070
H         -0.58280        1.77500       -0.81670
H         -0.55160        1.64580        0.96290
H          0.14040       -0.19300       -2.05510
H          1.68920       -0.17070       -1.19270
H          1.14110       -2.39680       -0.16290
H         -0.39740       -2.41910       -1.02010
H          0.82070       -2.40040       -3.21840
H          2.36920       -2.37820       -2.35540
H          1.37190       -4.57580       -4.16330
H          2.92960       -4.55300       -3.29620
H          1.76220       -5.86920       -2.99740
