22
gdb 8672	2.22143	1.67287	1.34617	0.6017	83.61	-0.257	0.0604	0.3174	1101.401	0.197191	-313.049138	-313.038864	-313.03792	-313.083411	38.316
C         -0.08220        1.54440        0.15140
C          0.04290        0.02260        0.04880
C          0.72170       -0.51210       -1.24540
C          0.78180       -2.05630       -1.17000
C         -0.01910       -0.05380       -2.53850
C         -1.49460       -0.45410       -2.64280
C          2.09680       -0.00200       -1.31630
C          3.22480        0.41080       -1.38230
H          0.89420        2.02550        0.04150
H         -0.74740        1.95520       -0.61480
H         -0.49130        1.82880        1.12580
H          0.62170       -0.34930        0.90210
H         -0.94820       -0.43900        0.12810
H         -0.22130       -2.48030       -1.06710
H          1.24430       -2.47390       -2.06890
H          1.37340       -2.37440       -0.30720
H          0.06840        1.03430       -2.62030
H          0.52980       -0.46240       -3.39470
H         -1.63150       -1.53920       -2.61280
H         -2.09800       -0.01860       -1.84040
H         -1.91020       -0.10020       -3.59150
H          4.22100        0.77380       -1.43940
