11
gdb 21421	4.06028	2.07496	1.3732	4.46	57.09	-0.2696	-0.0879	0.1816	796.464	0.0741	-426.898652	-426.892342	-426.891398	-426.929466	23.115
N         -0.09750        1.36660        0.01100
C         -0.00570        0.10190        0.00350
N          1.15440       -0.67760       -0.00740
N          1.22430       -2.02750       -0.01510
N          0.17830       -2.72330       -0.01300
C         -1.11640       -2.09290       -0.00210
O         -2.12310       -2.74870        6.87440
N         -1.12410       -0.70800        0.00550
H          0.80910        1.82710        0.00830
H          2.05830       -0.23130       -0.01010
H         -2.02290       -0.24380        0.01310
