17
gdb 4076	4.0889	1.55269	1.20621	0.6039	73.06	-0.2393	0.0138	0.2531	992.7858	0.143325	-363.84351	-363.836117	-363.835173	-363.875195	28.45
O         -0.05780        1.38040       -0.11910
N          0.06900       -0.02090       -0.06510
C         -1.06160       -0.60170        0.05860
C         -1.06360       -2.10570        0.09340
C         -1.86140       -2.63550        1.29890
C         -3.17980       -1.91990        1.44160
C         -3.41730       -0.71860        0.91750
C         -2.39350        0.09750        0.17050
H          0.86180        1.66080       -0.16840
H         -1.54770       -2.47080       -0.82340
H         -0.03470       -2.47220        0.09290
H         -2.02730       -3.71310        1.18440
H         -1.27190       -2.52040        2.21980
H         -3.96120       -2.42430        2.00440
H         -4.39200       -0.25430        1.04650
H         -2.24690        1.06780        0.65780
H         -2.76260        0.34400       -0.83730
