19
gdb 15668	3.28052	1.7188	1.24083	1.7569	71.39	-0.2439	0.0253	0.2692	1020.2906	0.166041	-365.089042	-365.080722	-365.079778	-365.122488	30.376
C          0.02210        1.69140       -0.02410
C         -0.22440        0.18470       -0.14690
C          0.71110       -0.48810       -1.14230
O          2.09120       -0.31560       -0.69700
C          2.66690       -1.53160       -0.82350
N          1.98060       -2.52940       -1.19220
C          0.59410       -2.03620       -1.35270
C         -0.33700       -2.79650       -0.40490
H          1.04380        1.89120        0.30930
H         -0.12090        2.19530       -0.98660
H         -0.66710        2.14330        0.69530
H         -0.11380       -0.29340        0.83240
H         -1.25560        0.00120       -0.47240
H          0.64010        0.02690       -2.10870
H          3.72390       -1.55270       -0.57920
H          0.27450       -2.23970       -2.38050
H         -0.04910       -2.65210        0.64040
H         -1.37770       -2.48130       -0.52630
H         -0.27340       -3.86550       -0.62310
