22
gdb 13501	2.93873	1.61664	1.19601	1.6707	78.04	-0.2395	0.0785	0.318	1107.7361	0.199096	-350.198553	-350.189172	-350.188228	-350.232458	34.547
C          0.94450        1.44510        0.25730
C          0.32490        0.04760        0.11120
C         -1.20840        0.11100        0.15090
C          0.80270       -0.59730       -1.18440
O          2.24660       -0.61980       -1.30950
C          2.22240       -1.97410       -1.79850
C          0.73230       -2.13630       -1.42710
C          0.47210       -3.05070       -0.23510
H          2.03460        1.39260        0.20790
H          0.60090        2.11090       -0.54370
H          0.65990        1.89870        1.21220
H          0.67580       -0.56610        0.95030
H         -1.59410        0.73360       -0.66510
H         -1.66570       -0.87900        0.05790
H         -1.55330        0.55010        1.09220
H          0.36680       -0.04220       -2.03250
H          2.43930       -2.02470       -2.87450
H          2.93130       -2.61710       -1.26220
H          0.08500       -2.41740       -2.26190
H          1.13270       -2.81500        0.60520
H         -0.56170       -2.98490        0.11770
H          0.65770       -4.09330       -0.51600
