20
gdb 9677	3.73528	1.1439	1.02373	1.9037	71.92	-0.2511	0.0703	0.3214	1222.7813	0.174697	-386.119357	-386.109696	-386.108752	-386.153668	35.252
C         -0.02170        1.57490       -0.34740
C          0.01580        0.12710        0.15880
C         -1.34940       -0.53740        0.14340
O         -2.29700        0.10110        0.96890
C         -1.87550       -1.19570       -1.11130
C         -1.53050       -2.02860        0.11050
C         -0.39370       -3.01470        0.09020
O         -0.87610       -4.21780       -0.49730
H          0.97740        2.02010       -0.33900
H         -0.40380        1.62630       -1.37290
H         -0.66020        2.19940        0.28630
H          0.71320       -0.45140       -0.45560
H          0.40370        0.10900        1.18490
H         -2.56720        0.91560        0.53160
H         -2.92500       -1.06590       -1.35030
H         -1.21560       -1.26590       -1.97080
H         -2.38640       -2.36830        0.68570
H          0.45690       -2.61420       -0.48270
H         -0.03840       -3.19450        1.11780
H         -0.17870       -4.87750       -0.43700
