15
gdb 833	7.14925	1.9371	1.55351	0.6525	64.17	-0.2072	0.0287	0.2359	801.4743	0.124978	-308.562031	-308.554959	-308.554015	-308.592994	25.447
C          0.07710        1.49470       -0.02590
C         -0.07420        0.01620        0.01160
C         -1.13050       -0.82280       -0.16020
C         -0.63620       -2.16590       -0.00030
C         -1.41520       -3.44050       -0.09670
C          0.69010       -2.02560        0.25720
O          1.05100       -0.71010        0.26880
H          0.78760        1.80740       -0.79970
H         -0.88730        1.96080       -0.23920
H          0.44320        1.88650        0.93000
H         -2.14670       -0.52830       -0.37610
H         -1.87940       -3.55510       -1.08300
H         -0.77320       -4.30990        0.07130
H         -2.22320       -3.47530        0.64320
H          1.48280       -2.73100        0.44720
