15
gdb 13754	3.48552	1.38039	1.22718	4.8959	63.59	-0.239	-0.0206	0.2185	1007.2966	0.117978	-399.833177	-399.824948	-399.824004	-399.866359	29.257
N         -0.02540        1.25700        0.43060
C          0.00830        0.10090       -0.29170
O          0.97340       -0.22200       -0.96220
C         -1.24890       -0.71970       -0.21530
C         -1.51220       -1.70000       -1.31530
C         -1.16670       -2.23390        0.05510
C          0.12980       -2.93010        0.28000
O          0.24830       -3.84210        1.06380
H          0.81500        1.81060        0.46980
H         -0.76790        1.46620        1.07430
H         -2.10560       -0.23660        0.24350
H         -2.52850       -1.83030       -1.66680
H         -0.73580       -1.76120       -2.07040
H         -1.97410       -2.63720        0.65700
H          0.97710       -2.56440       -0.32970
