14
gdb 12951	2.75301	2.25195	1.69204	1.3638	59.07	-0.2471	0.01	0.2572	800.8458	0.107159	-415.810238	-415.802984	-415.80204	-415.841408	27.726
N         -0.10760        1.51040       -0.13070
C         -0.02240        0.10490       -0.03050
C         -0.35650       -0.80520       -1.23310
O          0.48160       -1.76710       -1.76780
C         -1.11130       -0.99040        0.02480
O         -0.28180       -1.78450        0.92000
C          0.65250       -0.73630        1.00620
N          1.62850       -0.58680        1.77450
H         -0.11890        1.94510        0.78650
H          0.68410        1.88880       -0.64060
H         -0.87000       -0.24140       -2.00680
H          0.62500       -2.43250       -1.08220
H         -2.17360       -0.96360        0.22670
H          1.74520       -1.38450        2.40110
