15
gdb 18101	4.57556	2.18618	1.57076	1.1695	66.13	-0.2335	-0.0049	0.2286	780.1599	0.123227	-358.864717	-358.858851	-358.857907	-358.894504	23.352
C         -0.03120        1.41190       -0.02890
C          1.45300        1.90250        0.06690
C          2.16720        0.73790       -0.63390
N          3.48510        0.20520       -0.23900
C          3.28430       -1.04400       -0.04480
N          1.96610       -1.52010       -0.20520
C          1.19960       -0.36690       -0.29050
N          0.01210       -0.07520        0.04570
H         -0.66160        1.79780        0.77680
H         -0.48730        1.72850       -0.97730
H          1.61920        2.87670       -0.39760
H          1.76260        1.95640        1.11550
H          2.19310        0.91620       -1.71990
H          4.06370       -1.75230        0.21800
H          1.63640       -2.35400        0.25730
