16
gdb 18830	4.35986	2.13699	1.77889	1.3618	69.02	-0.2183	0.0084	0.2267	776.815	0.13134	-346.561421	-346.555136	-346.554192	-346.591509	25.391
C         -0.00690        1.50050        0.07270
C         -0.10060        0.01180       -0.00830
C         -0.04410       -0.78470       -1.08900
C         -0.03680       -2.20890       -0.67780
C          0.91090       -2.56630        0.53030
O          1.37960       -1.41580        1.19370
C         -0.02060       -0.89240        1.20290
C         -0.53180       -2.28930        0.74920
H          0.91630        1.81330        0.57700
H         -0.01520        1.95420       -0.92220
H         -0.83940        1.92710        0.64670
H          0.08770       -0.45300       -2.11230
H         -0.25230       -3.01700       -1.36650
H          1.52930       -3.45530        0.55290
H         -0.27010       -0.48960        2.18420
H         -1.36150       -2.87390        1.12500
