20
gdb 14756	11.93021	0.56363	0.54735	1.034	78.96	-0.2538	0.0558	0.3096	1990.1095	0.174231	-348.964278	-348.954154	-348.95321	-349.000126	34.821
C         -0.04390        1.39020        0.05750
O         -0.00830       -0.01510        0.02250
C          0.64190       -0.52060       -1.12290
C          0.62440       -2.04190       -1.06050
C          1.31020       -2.68860       -2.26640
C          1.28820       -4.22890       -2.19570
C          1.93790       -4.86210       -3.33680
C          2.47900       -5.35890       -4.28830
H          0.96810        1.82630        0.06790
H         -0.58560        1.80870       -0.80610
H         -0.56270        1.68290        0.97380
H          0.13610       -0.16760       -2.03920
H          1.68130       -0.14980       -1.16990
H          1.11400       -2.35830       -0.13130
H         -0.41830       -2.37600       -0.99330
H          0.82210       -2.37030       -3.19520
H          2.35180       -2.35270       -2.33460
H          1.77590       -4.55790       -1.26860
H          0.24840       -4.57550       -2.12840
H          2.95380       -5.80940       -5.12400
