18
gdb 10024	3.14881	1.08858	0.84419	0.7162	82.67	-0.2459	0.0415	0.2874	1395.3948	0.150261	-310.615214	-310.605091	-310.604147	-310.651675	34.84
C         -0.10540        1.53540       -0.05000
C         -0.06440        0.00900        0.01330
C          0.72660       -0.53320        1.23990
C          0.11600       -0.11080        2.50650
C         -0.39510        0.25080        3.53200
C          0.86500       -1.99240        1.17690
C          0.97030       -3.18840        1.09690
C          1.10060       -4.63610        1.01380
H          0.90340        1.95720       -0.12420
H         -0.67090        1.87010       -0.92470
H         -0.57930        1.95450        0.84210
H         -1.07820       -0.40210        0.05220
H          0.41090       -0.39900       -0.88460
H          1.73400       -0.09140        1.19470
H         -0.83950        0.55950        4.44560
H          0.67590       -5.12260        1.89880
H          0.58000       -5.03340        0.13550
H          2.15110       -4.93830        0.94140
