18
gdb 20040	5.33807	1.30736	1.16183	1.9344	75.79	-0.2188	0.0233	0.2421	1061.5592	0.154746	-347.792436	-347.784885	-347.78394	-347.825035	27.883
C         -0.16150        1.44920       -0.13410
C          1.25270        0.98850        0.06380
C          0.12420       -0.02940        0.07100
C         -0.27730       -0.73360        1.30060
C         -0.70300       -1.99230        1.41190
C         -1.01030       -2.32030        2.84220
O         -0.72210       -1.12640        3.56730
C         -0.26820       -0.11290        2.67990
H         -0.63960        1.99210        0.67310
H         -0.47260        1.76270       -1.12420
H          1.92190        0.98270       -0.78920
H          1.73790        1.21780        1.00560
H          0.05000       -0.64130       -0.82270
H         -0.82100       -2.70220        0.60250
H         -2.06410       -2.60420        2.99720
H         -0.39550       -3.14860        3.23090
H          0.73760        0.22140        2.98190
H         -0.93150        0.76450        2.74830
