14
gdb 20577	4.63883	1.50306	1.25304	2.8836	58.63	-0.2838	-0.0511	0.2327	937.4509	0.106514	-415.816014	-415.808534	-415.807589	-415.848464	26.543
C          0.03980        1.44090       -0.26440
C          0.05340       -0.02360        0.20290
O          0.57280       -0.14970        1.50930
C         -1.31980       -0.63380        0.08930
N         -2.03730       -0.89650        1.14720
O         -3.22670       -1.39400        0.69130
N         -3.24790       -1.44420       -0.67120
C         -2.09200       -0.98180       -1.05760
H          1.04690        1.85460       -0.17390
H         -0.28300        1.52710       -1.30730
H         -0.63980        2.03250        0.35680
H          0.73200       -0.59090       -0.44720
H         -0.15330       -0.03640        2.13400
H         -1.84410       -0.91460       -2.10550
