16
gdb 13694	5.13262	1.00522	0.91314	2.56	62.	-0.2411	-0.0353	0.2058	1232.3498	0.127097	-420.841227	-420.832556	-420.831612	-420.875732	30.052
O         -0.34700        1.25780       -0.38230
C         -0.15450       -0.08990       -0.07850
C         -0.32880       -0.59020        1.33930
C         -1.35640       -0.92420        0.29070
O         -2.56830       -0.22660        0.39550
C         -3.29750       -0.20980       -0.81930
C         -4.60370        0.52370       -0.57080
O         -5.41710        0.73960       -1.42830
H         -1.18610        1.51550        0.01990
H          0.62760       -0.51760       -0.69610
H          0.30780       -1.38680        1.70850
H         -0.62270        0.14270        2.08380
H         -1.45830       -1.94980       -0.06330
H         -2.74100        0.28940       -1.62540
H         -3.52810       -1.23170       -1.16080
H         -4.74400        0.84210        0.48590
