19
gdb 8914	3.56726	1.23731	0.982	4.0153	72.52	-0.2481	0.0367	0.2848	1205.1281	0.165372	-361.246633	-361.236838	-361.235894	-361.281193	34.988
C         -0.04440        1.57020        0.08960
C         -0.02150        0.04230       -0.00010
C          0.73230       -0.48090       -1.23540
N          2.15630       -0.14700       -1.28570
C          0.60460       -2.02250       -1.35430
N         -0.79800       -2.44670       -1.36410
C          1.34640       -2.51680       -2.53510
N          1.83310       -2.96490       -3.48350
H          0.96550        1.98940        0.14840
H         -0.53780        2.01090       -0.78440
H         -0.58940        1.90150        0.97820
H          0.45560       -0.37590        0.89850
H         -1.04190       -0.35050       -0.01450
H          0.27480       -0.05020       -2.13710
H          2.28850        0.83360       -1.50440
H          2.58960       -0.30550       -0.37950
H          1.07540       -2.46260       -0.46540
H         -1.23330       -2.15900       -2.23700
H         -0.85190       -3.46050       -1.34390
