18
gdb 9765	3.21545	1.69496	1.55542	1.6757	63.12	-0.2541	0.0826	0.3367	911.7197	0.153629	-422.075615	-422.067476	-422.066532	-422.10817	30.118
C         -0.10370        1.63210       -0.00220
C         -0.02780        0.11220       -0.06990
C         -1.42140       -0.53690       -0.11450
O         -2.12260       -0.33150        1.09300
C          0.88360       -0.42980       -1.18820
O          1.49780       -1.56690       -0.59960
C          1.71420       -1.19050        0.73410
O          0.61200       -0.39410        1.12950
H          0.88360        2.06060        0.19040
H         -0.48160        2.03830       -0.94690
H         -0.78500        1.93510        0.79590
H         -2.02210       -0.09000       -0.91450
H         -1.30030       -1.60910       -0.33580
H         -1.51480       -0.60670        1.79140
H          0.33590       -0.75610       -2.07570
H          1.63490        0.31870       -1.48280
H          1.76930       -2.09120        1.35330
H          2.64670       -0.60590        0.83270
