20
gdb 13619	3.79985	1.18425	1.01759	2.6228	71.41	-0.2519	0.0645	0.3164	1204.475	0.175981	-386.122548	-386.113274	-386.112329	-386.156559	34.146
C          0.08090        1.58970       -0.15540
C          0.02430        0.08750        0.02250
C          1.25340       -0.77030       -0.13430
C          0.61460       -0.61060        1.22920
C          1.31600        0.14160        2.33230
O          0.40250        0.89080        3.15320
C          2.14170       -0.77660        3.23980
O          2.71280       -0.05030        4.30500
H          1.04980        2.00020        0.14170
H         -0.07990        1.85840       -1.20500
H         -0.68490        2.09010        0.44560
H         -0.89820       -0.35930       -0.34040
H          1.17450       -1.72920       -0.63450
H          2.19820       -0.26130       -0.30130
H          0.05620       -1.47490        1.58810
H          1.98780        0.89990        1.91750
H         -0.34010        0.31230        3.36200
H          1.49160       -1.59230        3.60880
H          2.95670       -1.23970        2.67340
H          2.01910        0.56000        4.58960
