16
gdb 13340	5.95959	1.1543	1.0207	3.8466	67.55	-0.2388	-0.0188	0.22	1111.3416	0.129523	-383.748174	-383.740397	-383.739453	-383.781572	27.21
O         -0.10030       -0.02020       -0.00460
C         -0.00370        1.17900       -0.07460
C          1.31200        1.92790       -0.11100
C          1.41720        2.85980       -1.33650
O          0.34950        3.81170       -1.31810
C          0.86370        5.14250       -1.35980
C          2.35730        4.98230       -1.36630
C          2.67130        3.69280       -1.36170
H         -0.90230        1.83000       -0.12100
H          1.38200        2.54870        0.79200
H          2.12920        1.20030       -0.10590
H          1.33000        2.24500       -2.24780
H          0.49420        5.65810       -2.26010
H          0.49980        5.71030       -0.48990
H          3.04250        5.82020       -1.38320
H          3.66270        3.25890       -1.37370
