18
gdb 19443	3.20269	2.02723	1.56787	1.6515	71.93	-0.2214	0.0752	0.2966	881.9769	0.153231	-347.7498	-347.742418	-347.741474	-347.781368	28.836
C          0.11550        1.50600       -0.09020
C          1.36560        0.67150        0.09160
C          0.02480        0.01510       -0.00610
C         -0.70040       -0.84690        1.02340
O         -1.15000       -1.74740       -0.01830
C         -0.48810       -0.97540       -1.02500
C         -1.08120       -0.77500       -2.37930
C          0.17850       -1.61600       -2.19600
H         -0.24250        2.08770        0.75350
H         -0.05160        1.97410       -1.05540
H          2.04390        0.57520       -0.75050
H          1.85790        0.68560        1.05910
H         -0.06340       -1.35890        1.75540
H         -1.54320       -0.37110        1.54010
H         -2.00620       -1.30010       -2.59260
H         -0.99270        0.19950       -2.84970
H          1.12670       -1.21530       -2.54130
H          0.07920       -2.69220       -2.28920
