19
gdb 13660	5.12967	0.87433	0.80264	4.2986	76.56	-0.2821	0.0386	0.3206	1423.3073	0.165149	-327.937877	-327.928981	-327.928036	-327.972019	31.889
C          0.03350        1.55000       -0.22670
C          0.03370        0.05130       -0.01420
C          1.31800       -0.74240       -0.02780
C          0.52680       -0.60690        1.25570
C          1.07630        0.17300        2.43050
C          2.04730       -0.68830        3.26860
C          2.59720        0.03360        4.41350
N          3.02190        0.62250        5.31260
H          0.92990        2.02570        0.18100
H          0.00110        1.78480       -1.29610
H         -0.83670        2.02190        0.24290
H         -0.81970       -0.44740       -0.46700
H          1.34510       -1.70180       -0.53250
H          2.24380       -0.17810       -0.10160
H         -0.02990       -1.49320        1.55380
H          1.60640        1.06790        2.09210
H          0.26120        0.51890        3.07660
H          1.53630       -1.58580        3.63640
H          2.87520       -1.03500        2.64010
