15
gdb 1445	8.9112	1.27351	1.12974	1.6873	62.	-0.2577	-0.0145	0.2432	1021.885	0.124828	-341.882531	-341.874536	-341.873592	-341.915713	27.187
C         -0.24820        1.56090        0.18260
C         -0.20010        0.10350       -0.26850
C          0.75010       -0.11650       -1.43870
O          1.39860        0.76680       -1.95800
N          0.81550       -1.43220       -1.87130
C          1.61170       -1.86440       -2.91910
N          1.61580       -3.08950       -3.25560
H          0.74100        1.90480        0.49390
H         -0.57710        2.20990       -0.63240
H         -0.93840        1.67860        1.02220
H          0.11280       -0.55250        0.55470
H         -1.19680       -0.24870       -0.56630
H          0.26070       -2.14290       -1.41490
H          2.18150       -1.04650       -3.36390
H          2.25070       -3.23750       -4.03790
