17
gdb 10131	3.35485	1.21641	0.90901	3.0827	75.3	-0.2389	-0.0356	0.2033	1270.1302	0.140786	-360.059701	-360.050128	-360.049184	-360.094483	32.629
C          0.07830        1.52280        0.01810
C         -0.03990        0.00340       -0.02250
N          0.66720       -0.53200       -1.17720
C          0.76780       -1.88620       -1.37060
N          0.39450       -2.73330       -0.49490
C          0.59370       -4.15120       -0.69630
C          1.37100       -2.23710       -2.65480
N          1.83280       -2.53170       -3.67320
H          1.12530        1.83540        0.07550
H         -0.36830        1.98200       -0.87140
H         -0.44630        1.91810        0.89180
H          0.39540       -0.44760        0.87420
H         -1.09490       -0.30600       -0.03850
H          0.71380        0.04660       -2.00110
H          1.03860       -4.42040       -1.66440
H          1.23820       -4.54340        0.09960
H         -0.36960       -4.66570       -0.60250
