18
gdb 14309	3.5264	1.79937	1.69577	1.8633	66.71	-0.2355	0.0734	0.3089	867.1066	0.154549	-384.927466	-384.920131	-384.919187	-384.95887	28.807
C          0.27340        1.52540        0.06830
C          0.13320        0.01740       -0.01890
C          0.77130       -0.65060       -1.25760
C          1.25350       -1.99620       -0.72570
C          2.51620       -1.97090        0.12860
O          3.32960       -0.84330        0.16130
C          1.16280       -1.89770        0.78060
O          0.80020       -0.57950        1.11890
H          1.32550        1.82080        0.00180
H         -0.26910        2.00290       -0.75360
H         -0.13400        1.89980        1.01150
H         -0.93070       -0.26080        0.03470
H          0.04790       -0.76930       -2.06780
H          1.60970       -0.05180       -1.62930
H          0.99660       -2.90970       -1.24860
H          3.07730       -2.89830        0.20440
H          2.88420       -0.21900        0.75270
H          0.76550       -2.66770        1.43440
