16
gdb 9213	6.28667	0.98248	0.88715	5.3679	65.71	-0.2459	0.0087	0.2546	1279.4143	0.129452	-417.078626	-417.069459	-417.068515	-417.114002	30.594
C          0.12130        1.31850       -0.29410
N         -0.13580       -0.10850       -0.21990
C          0.60370       -1.02170       -0.90290
O          1.53470       -0.73960       -1.63450
C          0.21550       -2.48590       -0.64590
O          0.23740       -3.24810       -1.83270
C          1.45630       -3.58630       -2.32250
N          1.52590       -4.20380       -3.41880
H          1.00880        1.45640       -0.91210
H         -0.71850        1.85050       -0.75380
H          0.30320        1.73850        0.70060
H         -0.92980       -0.42710        0.31050
H          0.91280       -2.89060        0.10240
H         -0.79770       -2.57990       -0.24580
H          2.28720       -3.28520       -1.67660
H          2.49880       -4.40710       -3.63770
