20
gdb 16752	5.21971	1.31057	1.18358	0.2527	81.05	-0.2156	0.0279	0.2435	1095.6208	0.178376	-311.877009	-311.869275	-311.868331	-311.909136	30.062
C          0.09190        1.47710        0.27840
C         -0.05630        0.00430       -0.14240
C         -1.47360       -0.48870       -0.12260
C         -2.16980       -0.97600       -1.15700
C         -3.51920       -1.46810       -0.75920
C         -3.51540       -2.62960        0.21700
C         -3.59920       -1.21860        0.73900
C         -2.30770       -0.51620        1.15260
H          1.14030        1.78860        0.24110
H         -0.48110        2.13240       -0.38550
H         -0.26670        1.64080        1.29950
H          0.35860       -0.13240       -1.14750
H          0.55620       -0.61410        0.52990
H         -1.79040       -1.05780       -2.17050
H         -4.36940       -1.33850       -1.42010
H         -4.41650       -3.23070        0.28880
H         -2.58980       -3.18440        0.33720
H         -4.52970       -0.90830        1.19940
H         -1.78600       -1.03630        1.96780
H         -2.50830        0.49960        1.51950
