18
gdb 15174	8.43004	0.67283	0.65297	0.9099	80.76	-0.2383	0.0371	0.2754	1752.36	0.152118	-347.74697	-347.737767	-347.736823	-347.782598	31.544
C         -0.25050        1.34850       -0.24190
O         -0.28140       -0.05760       -0.29980
C          0.91610       -0.59250       -0.83560
C          0.85340       -2.04520       -0.87830
C          0.82770       -3.24930       -0.92530
C          0.79350       -4.68070       -0.97340
C         -0.40900       -5.39380       -1.57480
C          0.89710       -5.40370       -2.30890
H          0.56890        1.71590        0.39720
H         -0.13140        1.79910       -1.24080
H         -1.20240        1.67630        0.18170
H          1.08890       -0.19380       -1.85130
H          1.78090       -0.27400       -0.22660
H          1.26200       -5.18140       -0.13100
H         -0.73780       -6.30360       -1.08550
H         -1.20710       -4.76990       -1.95860
H          0.98950       -4.78730       -3.19490
H          1.47480       -6.32090       -2.33030
