20
gdb 18601	3.2354	1.96845	1.60649	1.5826	72.97	-0.2515	0.0611	0.3126	887.6843	0.179618	-349.009925	-349.002676	-349.001732	-349.041364	29.128
O          0.50860        0.86810       -0.91070
C          0.09080       -0.20740       -0.10270
C          0.18520       -0.07110        1.44110
C         -1.27460       -0.60010        1.57590
C         -2.29480        0.38890        2.15530
C         -2.48050        1.43980        1.04260
C         -2.41210        0.61990       -0.26460
C         -1.43320       -0.53640        0.01430
H          0.12090        1.67630       -0.55940
H          0.65080       -1.07140       -0.47090
H          0.96750       -0.65790        1.92880
H          0.29730        0.97030        1.76450
H         -1.33920       -1.59280        2.02450
H         -3.24590       -0.12610        2.33850
H         -1.97250        0.82510        3.10690
H         -3.41220        2.00430        1.14020
H         -1.66680        2.17600        1.08140
H         -3.40130        0.20730       -0.49080
H         -2.11210        1.21600       -1.13250
H         -1.72960       -1.45140       -0.50300
