20
gdb 17281	4.57166	1.17175	1.07644	1.8946	76.77	-0.2197	0.0878	0.3075	1177.2517	0.176762	-345.112629	-345.104152	-345.103208	-345.146066	31.249
C         -0.46630        1.20660        0.01080
N          0.07080       -0.13740        0.16860
C          1.46270       -0.36700       -0.19360
C          1.03050       -0.41690        1.23360
C          1.50500        0.62420        2.22310
N          0.49800        0.85790        3.25710
C          0.52650       -0.05020        4.39980
C          0.99080        1.35790        4.53490
H          0.28330        2.01120        0.07540
H         -0.94300        1.27680       -0.97230
H         -1.22170        1.38380        0.78090
H          1.67720       -1.27820       -0.74640
H          2.05810        0.49540       -0.49640
H          0.87900       -1.39730        1.68560
H          2.46580        0.28280        2.65400
H          1.70360        1.57850        1.72540
H         -0.44080       -0.35560        4.78780
H          1.29050       -0.82650        4.41760
H          2.06330        1.51750        4.64050
H          0.36940        2.10230        5.02420
