21
gdb 10729	2.75301	1.50245	1.33945	2.25	74.	-0.2379	0.0739	0.3119	1075.3414	0.187503	-366.238549	-366.228994	-366.228049	-366.272572	35.429
C          0.98580       -1.22010        0.68040
C          0.06360       -0.29470       -0.11940
C         -1.42040       -0.64280       -0.13380
C         -1.89040       -2.01860        0.16590
N         -2.14060       -0.91980        1.12250
C         -2.27440        0.18820       -1.09750
C         -2.34480        1.66620       -0.71660
O         -1.85340        0.00480       -2.44850
H          2.00200       -0.81570        0.69700
H          0.66690       -1.32480        1.72390
H          1.03670       -2.22070        0.24210
H          0.17530        0.72910        0.26160
H          0.40750       -0.27370       -1.16070
H         -2.77670       -2.40420       -0.33100
H         -1.16300       -2.77780        0.43500
H         -1.48670       -0.98950        1.89870
H         -3.28840       -0.22410       -1.05110
H         -1.36410        2.15140       -0.79630
H         -3.03600        2.19390       -1.37980
H         -2.69410        1.77450        0.31370
H         -1.17580        0.66010       -2.64060
