14
gdb 4090	3.57913	1.91715	1.28535	2.811	63.92	-0.252	-0.0441	0.2079	892.5536	0.108073	-415.827331	-415.820243	-415.819298	-415.858889	26.125
O         -0.01680        1.31930        0.16160
N          0.02320       -0.05840        0.11450
C         -1.12100       -0.61490        0.01320
C         -1.25600       -2.11640       -0.05020
C         -2.70870       -2.30890        0.40480
O         -3.38550       -1.08210        0.07500
C         -2.49500       -0.04480       -0.03870
N         -2.82820        1.16590       -0.18690
H          0.91580        1.54720        0.25360
H         -1.12800       -2.46400       -1.08210
H         -0.52960       -2.63630        0.57550
H         -3.22870       -3.12210       -0.10480
H         -2.77660       -2.46910        1.48750
H         -3.84790        1.24570       -0.18610
