15
gdb 20818	5.03328	1.5308	1.2779	3.3109	68.68	-0.2356	-0.0697	0.1659	949.6333	0.120416	-358.860811	-358.853714	-358.85277	-358.893076	25.373
C          0.17430        1.53340        0.16020
C         -0.09350        0.03410       -0.05950
C          0.64130       -0.49800       -1.25920
C          1.73260       -1.37250       -1.15710
N          2.38980       -1.82440       -2.21890
N          1.99180       -1.42750       -3.42650
C          0.95150       -0.59750       -3.48940
N          0.24570       -0.10450       -2.46860
H          1.23350        1.72040        0.36310
H         -0.10820        2.10290       -0.72890
H         -0.40540        1.90490        1.00950
H          0.19310       -0.53760        0.82910
H         -1.16580       -0.12150       -0.22080
H          2.08960       -1.72360       -0.19300
H          0.65260       -0.29720       -4.49010
