16
gdb 9051	4.47909	1.00243	0.85981	1.4959	74.05	-0.2576	0.017	0.2746	1306.3828	0.125776	-346.515693	-346.506262	-346.505318	-346.550927	33.114
C         -0.08210        1.51940        0.01630
C          0.02940       -0.01360       -0.00570
O          0.70260       -0.48340       -1.17360
C         -0.12700       -0.54460       -2.32120
C          0.61470       -1.13450       -3.42710
C          1.20140       -1.61480       -4.35800
C          0.76480       -0.50570        1.15850
C          1.35330       -0.88000        2.13610
H          0.91550        1.96270       -0.02550
H         -0.66710        1.88060       -0.83410
H         -0.57610        1.84860        0.93450
H         -0.98570       -0.44540        0.02000
H         -1.02520       -1.15060       -2.11180
H         -0.48120        0.45590       -2.61630
H          1.72740       -2.04230       -5.17550
H          1.87720       -1.22400        2.99350
