16
gdb 8838	3.54794	1.28278	1.06585	4.2967	63.28	-0.2567	-0.0517	0.2051	1120.7763	0.126547	-420.899752	-420.890615	-420.889671	-420.934646	31.24
C          0.11950        1.50710        0.10240
C          0.13980       -0.01340       -0.04320
C          0.83380       -0.49150       -1.29940
O          1.35340        0.25470       -2.09850
C          0.88940       -2.00800       -1.59630
O          1.40870       -2.24020       -2.85830
C          1.69330       -2.71940       -0.49170
O          2.78030       -3.19390       -0.65620
H          1.13470        1.91040        0.12180
H         -0.40200        1.97260       -0.73740
H         -0.38690        1.79470        1.02730
H          0.63840       -0.48570        0.81570
H         -0.87660       -0.42970       -0.04210
H         -0.14130       -2.39670       -1.51530
H          1.76220       -1.38620       -3.15670
H          1.16880       -2.76840        0.49130
