18
gdb 16724	3.5908	1.70042	1.67045	0.8015	76.03	-0.256	0.0522	0.3082	883.6491	0.155275	-310.637168	-310.630005	-310.629061	-310.668214	28.69
C          0.57460       -0.90520        0.83950
C          0.28010        0.18360        0.42080
C         -0.08910        1.49390       -0.10500
C         -0.91490        2.34950        0.91220
C          0.08330        3.29050        1.56680
C          1.36190        2.70170        2.11150
C          1.34440        3.31030        0.73040
C          1.15010        2.38190       -0.45740
H          0.83450       -1.86620        1.20890
H         -0.68520        1.32260       -1.00770
H         -1.66150        2.93620        0.36500
H         -1.45280        1.71400        1.62130
H         -0.29940        4.19770        2.02140
H          1.86810        3.26530        2.88810
H          1.44760        1.62570        2.21530
H          1.89210        4.23220        0.56790
H          2.02620        1.76860       -0.68600
H          0.92350        2.97680       -1.34950
