17
gdb 14187	2.85093	2.24563	2.08832	1.7029	68.12	-0.2309	0.0689	0.2998	792.117	0.140942	-363.762078	-363.754752	-363.753808	-363.793092	28.55
C          0.03020        1.47990       -0.06540
C          0.03030       -0.01660       -0.07020
N          0.67530       -0.87210       -1.12610
C          0.09940       -1.88120       -0.17950
C          0.45090       -1.01310        1.05440
O         -0.87250       -1.09130        1.65460
C         -1.15440       -1.02540        0.22000
C         -2.57070       -1.05370       -0.25380
H          1.05190        1.86820       -0.12020
H         -0.53270        1.88210       -0.91500
H         -0.43440        1.84470        0.85630
H          0.12570       -0.84330       -1.98960
H          0.19110       -2.95990       -0.31000
H          1.32850       -1.02230        1.69870
H         -3.13020       -0.20270        0.14700
H         -2.60410       -1.00520       -1.34760
H         -3.06710       -1.97510        0.06570
