20
gdb 5971	3.39343	1.21105	1.12182	0.9783	77.9	-0.258	0.0552	0.3132	1183.7285	0.173157	-348.966737	-348.956579	-348.955635	-349.001305	36.549
C         -0.00390        1.40440       -0.01110
O          0.00170       -0.00300        0.00210
C          0.64290       -0.56140       -1.12270
C          0.59760       -2.10260       -1.01330
C          1.33600       -2.55980        0.26520
C         -0.87090       -2.58340       -0.98070
C          1.27140       -2.64600       -2.19660
C          1.82590       -3.08210       -3.17040
H          1.01740        1.81670       -0.01310
H         -0.53490        1.80220       -0.89030
H         -0.51820        1.73820        0.89330
H          0.14360       -0.24190       -2.05200
H          1.69120       -0.22540       -1.17810
H          0.86450       -2.11230        1.14300
H          1.30230       -3.64850        0.35800
H          2.38570       -2.25310        0.23880
H         -1.39540       -2.29350       -1.89580
H         -0.91530       -3.67220       -0.89400
H         -1.38620       -2.13640       -0.12760
H          2.31410       -3.47390       -4.02810
