17
gdb 3161	3.72841	2.69438	1.89757	1.4468	64.24	-0.2519	0.0811	0.3331	726.0814	0.148659	-309.691414	-309.684511	-309.683567	-309.721991	26.723
O          0.42240        0.90710       -0.68990
C          0.10070       -0.25010        0.03880
C          0.04110       -0.19690        1.59360
C         -1.23380       -1.09090        1.54550
C         -1.35040       -0.76240        0.05150
C         -2.49160       -0.03780       -0.60680
C         -2.12190       -1.44160       -1.03370
H         -0.17340        1.60700       -0.40020
H          0.79780       -1.01840       -0.31220
H          0.90780       -0.56590        2.14590
H         -0.18820        0.81720        1.93730
H         -1.01030       -2.14660        1.72780
H         -2.06850       -0.79720        2.18690
H         -3.40690        0.10630       -0.04140
H         -2.25060        0.77010       -1.29140
H         -1.64140       -1.56600       -1.99940
H         -2.78940       -2.25200       -0.75760
