17
gdb 7424	3.30257	1.51544	1.19178	1.126	65.19	-0.2382	-0.0623	0.1759	1044.5689	0.140188	-401.060419	-401.051109	-401.050164	-401.094578	33.016
C         -0.07450        1.50120       -0.12670
C         -0.01140       -0.03400        0.05430
C          0.73840       -0.43400        1.32580
C         -1.42400       -0.57950        0.05120
O         -2.02060       -0.94240        1.04130
C         -2.12720       -0.65370       -1.33120
N         -3.39950       -1.09420       -1.22860
O         -1.55920       -0.34590       -2.36290
H          0.94060        1.90720       -0.16050
H         -0.58060        1.76700       -1.05690
H         -0.59920        1.97150        0.71170
H          0.48280       -0.43990       -0.83540
H          0.22870       -0.05170        2.21450
H          0.80360       -1.52130        1.42590
H          1.75480       -0.03000        1.30850
H         -3.75320       -1.34180       -0.31850
H         -3.96170       -1.20820       -2.05450
