14
gdb 20656	7.16008	1.29993	1.10773	4.7429	68.2	-0.2569	-0.0458	0.2112	1020.8541	0.107923	-378.762181	-378.754961	-378.754016	-378.794023	25.525
C         -0.03180        1.54710        0.02700
C          0.00390        0.05140       -0.00890
C         -0.03870       -0.77780       -1.09480
N          0.02080       -2.07280       -0.62640
C          0.00380       -3.22720       -1.41980
O          0.05580       -4.34940       -1.00940
N          0.10110       -2.11770        0.73130
C          0.09060       -0.85240        1.09730
H          0.86180        1.95710        0.51010
H         -0.08710        1.96580       -0.98110
H         -0.89840        1.91350        0.58830
H         -0.10520       -0.56940       -2.15140
H         -0.06530       -2.95310       -2.48940
H          0.14570       -0.60250        2.14850
