14
gdb 4996	3.3544	2.31685	1.38195	1.6797	66.75	-0.2372	-0.0419	0.1953	841.3835	0.109763	-378.800833	-378.794091	-378.793146	-378.831733	25.059
C         -0.02350        1.51690        0.00490
C         -0.00600        0.01880       -0.02030
C         -0.05630       -0.72580       -1.16090
N         -0.04260       -2.09940       -1.22290
C          0.02440       -2.70990       -0.08390
N          0.07940       -2.07270        1.11250
C          0.06970       -0.66980        1.26020
O          0.12150       -0.16250        2.36600
H          0.87410        1.90720        0.49640
H         -0.08090        1.92900       -1.00550
H         -0.87520        1.88530        0.58680
H         -0.11330       -0.22830       -2.12620
H          0.04030       -3.79630       -0.04730
H          0.13150       -2.59780        1.97600
