12
gdb 21463	8.02703	1.27338	1.10176	0.8459	60.97	-0.2487	-0.0254	0.2233	987.3069	0.084125	-414.641065	-414.634297	-414.633353	-414.673303	23.434
N         -0.07370        1.27300       -0.10460
C         -0.00590        0.02750        0.03150
O         -1.17000       -0.69170       -0.12130
C         -1.14380       -2.02870       -0.07230
C         -2.18110       -2.90340        0.02750
C         -1.52030       -4.15740        0.00040
N         -0.21780       -4.05780       -0.10330
O          0.02800       -2.66620       -0.15640
H          0.84230        1.69170        0.04560
H          0.85990       -0.59140        0.26730
H         -3.22950       -2.67950        0.11020
H         -1.95680       -5.14520        0.05660
