10
gdb 21884	7.89716	1.39851	1.18811	2.4816	52.39	-0.2862	-0.0911	0.1951	888.3005	0.061015	-446.769004	-446.762749	-446.761805	-446.799656	21.905
O          0.06870        1.28780       -0.15790
C          0.06520       -0.03680       -0.08620
N          0.01620       -0.81930       -1.14060
N          0.03550       -2.03140       -0.54840
C         -0.00320       -3.23010       -1.31550
O          0.01170       -4.32010       -0.83510
N          0.09290       -1.98260        0.78950
N          0.11230       -0.72510        1.09860
H          0.10890        1.63040        0.74470
H         -0.04790       -2.97810       -2.38580
