15
gdb 9717	3.14395	1.91205	1.65542	1.9337	61.61	-0.2493	-0.0342	0.2151	833.4332	0.118354	-399.823657	-399.816097	-399.815153	-399.855934	26.946
C          0.13650        1.56870        0.26260
C          0.00690        0.05060        0.08460
C          0.66270       -0.49840       -1.20520
O          1.60100       -1.49630       -0.72670
C          1.50900       -1.46050        0.61650
N          0.69840       -0.66420        1.18390
C         -1.47420       -0.32800        0.19020
O         -2.13390       -0.78080       -0.70780
H          1.19350        1.84750        0.29530
H         -0.34350        2.10100       -0.56500
H         -0.32620        1.88830        1.20070
H         -0.06320       -0.98100       -1.86240
H          1.22510        0.25760       -1.75920
H          2.17060       -2.14880        1.13120
H         -1.90040       -0.14580        1.19950
