17
gdb 19796	2.947	2.66968	1.86047	1.1836	66.05	-0.2262	0.058	0.2843	763.3422	0.144095	-363.80998	-363.803427	-363.802483	-363.840294	26.684
O         -0.19770        1.45140       -0.18080
C         -0.01500        0.04580       -0.03550
C         -1.37500       -0.65110        0.03920
C         -2.34910       -0.36360       -1.07760
C         -1.45870       -1.57840       -1.14700
N         -0.18610       -1.59550       -1.87800
C          0.20660       -0.37630       -2.59460
C          0.70670       -0.62630       -1.21770
H          0.66970        1.84870       -0.30920
H          0.54720       -0.16300        0.88620
H         -1.75380       -0.92360        1.01700
H         -3.39800       -0.55060       -0.87240
H         -2.17620        0.49970       -1.70650
H         -1.91730       -2.55810       -1.07650
H          0.86250       -0.54900       -3.44400
H         -0.51360        0.42060       -2.74190
H          1.73470       -0.94740       -1.06250
