14
gdb 18216	4.42949	1.82203	1.40561	3.47	63.78	-0.2557	-0.0757	0.18	848.6	0.108288	-378.706656	-378.700132	-378.699188	-378.737565	24.096
O         -0.97080        1.47970        0.04620
C          0.15000        1.09450        0.25570
C          1.36000        1.96410        0.18280
N          2.52530        1.46310        0.34350
C          3.49530        2.56000        0.18660
C          2.65340        3.78170       -0.18320
C          1.79900        3.71130       -1.39160
N          1.23220        3.36300       -0.06110
H          0.39450        0.04390        0.50950
H          4.02530        2.70710        1.13510
H          4.24800        2.28220       -0.55960
H          2.90000        4.74900        0.24100
H          1.39530        4.62050       -1.82450
H          1.95700        2.89500       -2.09200
