22
gdb 11572	3.57993	1.10216	0.95101	1.0187	79.13	-0.2476	0.0871	0.3347	1330.2008	0.198624	-350.187691	-350.178012	-350.177068	-350.222586	34.995
C         -0.20350        1.46630        0.00630
O         -0.06880        0.07180        0.13500
C         -1.28760       -0.66090        0.04220
C         -1.75090       -0.80280       -1.41030
C         -1.02740       -2.01970        0.69840
C         -0.67610       -1.91670        2.16660
C         -1.76540       -1.87770        3.21070
C         -0.87610       -3.09190        3.08670
H          0.78410        1.90270        0.17810
H         -0.54590        1.77190       -0.99360
H         -0.90530        1.87820        0.74890
H         -2.06450       -0.13240        0.62090
H         -2.69210       -1.35970       -1.46050
H         -1.91880        0.17130       -1.87850
H         -0.99890       -1.33930       -1.99780
H         -1.91860       -2.64730        0.57330
H         -0.21340       -2.51180        0.14970
H          0.19150       -1.29540        2.36310
H         -1.63900       -1.23050        4.07170
H         -2.79440       -1.97120        2.87650
H         -1.31100       -3.99530        2.67040
H         -0.14030       -3.27410        3.86230
