21
gdb 12017	3.86354	1.30811	1.24694	1.017	80.62	-0.2304	0.0914	0.3218	1112.701	0.187468	-329.08782	-329.079027	-329.078083	-329.120803	33.461
C         -0.07000        1.53310        0.01180
C         -0.01700        0.01810        0.01020
C         -1.23680       -0.65490       -0.59020
C          1.32750       -0.65020       -0.19960
C          0.66800       -0.69360        1.15720
N          1.26440        0.07900        2.21180
C          0.65430       -0.03400        3.53280
C          1.97280       -0.66650        3.24760
H          0.79610        1.95740        0.52260
H         -0.09770        1.92010       -1.01360
H         -0.97040        1.89300        0.52450
H         -1.36500       -0.36840       -1.64100
H         -1.15650       -1.74620       -0.55280
H         -2.15000       -0.36760       -0.05520
H          1.37500       -1.56470       -0.78190
H          2.19690       -0.00780       -0.28930
H          0.22980       -1.65070        1.45990
H          0.59330        0.88560        4.10800
H         -0.20180       -0.69790        3.64240
H          1.99660       -1.75190        3.16650
H          2.89280       -0.21660        3.61030
