13
gdb 5041	3.59145	2.44383	1.46753	4.3772	61.44	-0.2666	-0.0641	0.2025	788.3709	0.098047	-394.84548	-394.838905	-394.837961	-394.876397	23.626
C         -0.01730        1.45260        0.00050
N          0.00160       -0.00570       -0.03050
C         -0.10090       -0.70550       -1.17340
N         -0.08940       -2.00630       -1.24170
C          0.04040       -2.61910       -0.02610
N          0.14810       -2.06640        1.14650
C          0.13550       -0.68770        1.22630
O          0.22550       -0.03410        2.23850
H          0.90770        1.82380        0.44630
H         -0.12260        1.83090       -1.01770
H         -0.84910        1.79750        0.61800
H         -0.20050       -0.12150       -2.08680
H          0.05190       -3.70740       -0.06080
