22
gdb 12882	2.43927	2.12902	1.65562	0.086	81.37	-0.2481	0.0821	0.3302	954.317	0.201606	-313.081895	-313.073482	-313.072538	-313.114178	32.553
C          0.03620        1.61980        0.09680
C          0.11170        0.10650        0.09490
C          1.30530       -0.72690       -0.33060
C          2.69290       -0.10360       -0.38810
C          2.95510        0.51230        1.01270
C          1.91490       -0.12090        1.97370
C          0.82690       -0.76240        1.11090
C          0.09970       -1.95000        1.70100
H          0.95770        2.10070        0.42800
H         -0.18560        1.99630       -0.90850
H         -0.76720        1.96430        0.75800
H         -0.82960       -0.33760       -0.22670
H          1.11000       -1.56450       -0.99410
H          3.42320       -0.89170       -0.60420
H          2.79610        0.64220       -1.18470
H          3.97820        0.31990        1.34870
H          2.84870        1.59940        0.98420
H          2.38200       -0.91000        2.57540
H          1.51600        0.61280        2.68410
H         -0.48200       -1.66450        2.58640
H         -0.59660       -2.39040        0.98000
H          0.80200       -2.73430        2.00960
