22
gdb 5797	3.2904	1.27217	1.16817	2.4565	78.49	-0.2408	-0.0111	0.2297	1183.5107	0.196122	-350.243116	-350.232693	-350.231749	-350.279646	37.846
C         -0.16400        1.59000        0.00510
C          0.11130        0.09310        0.00820
O          1.24530       -0.33150        0.00410
C         -1.13000       -0.79400        0.01630
C         -0.94840       -2.32880        0.00050
C         -0.18250       -2.79950        1.25170
C         -2.35410       -2.96030        0.00750
C         -0.20560       -2.77590       -1.27310
H          0.77920        2.13730        0.01870
H         -0.73880        1.87080       -0.88470
H         -0.76790        1.87280        0.87450
H         -1.72050       -0.50020        0.89700
H         -1.74520       -0.48460       -0.84180
H         -0.70220       -2.49620        2.16840
H         -0.10780       -3.89240        1.26300
H          0.82680       -2.38560        1.27510
H         -2.93490       -2.65500       -0.87040
H         -2.28550       -4.05340       -0.00240
H         -2.91910       -2.67010        0.90080
H          0.80360       -2.36240       -1.30680
H         -0.13200       -3.86840       -1.30680
H         -0.74140       -2.45470       -2.17440
