16
gdb 9199	7.8084	0.78954	0.72688	3.6697	67.71	-0.2478	-0.016	0.2318	1474.3424	0.126353	-383.713603	-383.704022	-383.703078	-383.749793	32.425
O          0.07720        1.40130        0.06940
C         -0.01020        0.00520       -0.02580
C         -1.47250       -0.42710        0.05070
O         -2.37760        0.36670        0.11200
C         -1.70120       -1.93390        0.04290
C         -3.19350       -2.29900       -0.01340
C         -3.41130       -3.73960        0.00430
C         -3.56380       -4.93180        0.02000
H          1.00450        1.64750        0.00480
H          0.39620       -0.38470       -0.97600
H          0.53750       -0.51480        0.77980
H         -1.16190       -2.38020       -0.80170
H         -1.23990       -2.36200        0.94230
H         -3.70990       -1.82510        0.82810
H         -3.63910       -1.86070       -0.91350
H         -3.71830       -5.98210        0.03380
