14
gdb 11651	3.42416	1.87795	1.50177	1.886	65.18	-0.2419	0.0103	0.2523	847.1139	0.105408	-382.427686	-382.420565	-382.41962	-382.458757	27.545
O          0.19290        1.46240        0.09940
C          0.05190        0.07860        0.03370
C         -0.11540       -0.67740        1.36690
C         -1.53840       -0.09900        1.53240
C         -1.37630       -0.59630        0.06800
O         -0.68110       -1.80390        0.58900
C         -2.34660       -0.72230       -0.97320
C         -3.15510       -0.78310       -1.86160
H          0.16960        1.81470       -0.79620
H          0.72900       -0.41080       -0.67410
H          0.63150       -0.91610        2.12170
H         -2.21580       -0.69920        2.14000
H         -1.63810        0.97550        1.68500
H         -3.87300       -0.84830       -2.64180
