18
gdb 12927	3.39763	1.6902	1.4001	1.1223	68.13	-0.237	0.0821	0.3191	953.703	0.152641	-384.891906	-384.883665	-384.882721	-384.924358	30.599
C          0.10200        1.07800       -0.36820
O         -0.07880       -0.00570        0.52250
C         -1.30490       -0.64570        0.35190
C         -1.55950       -1.66960       -0.73300
C         -0.28050       -2.47400       -1.00010
C         -0.23040       -2.89680        0.50280
C         -1.49200       -2.06460        0.75800
O         -2.53320       -2.47080        1.57600
H          1.09640        1.48950       -0.17960
H          0.03570        0.75610       -1.41700
H         -0.64690        1.86730       -0.20130
H         -2.17400       -0.01770        0.56290
H         -2.41550       -1.59440       -1.39330
H         -0.44340       -3.32040       -1.66970
H          0.57440       -1.89580       -1.35950
H         -0.43190       -3.96180        0.63530
H          0.66020       -2.61750        1.07140
H         -2.39450       -2.09420        2.45230
