17
gdb 20252	3.55279	3.01872	2.36014	1.6889	69.02	-0.2235	0.0786	0.3021	668.8321	0.146502	-326.677584	-326.672396	-326.671451	-326.70644	22.727
C         -0.03660        1.57280        0.01040
C          1.52210        1.54280       -0.01460
C          2.04210        1.50680       -1.45620
C          1.71740        0.09190       -1.88520
C          0.51370       -0.59280       -1.34230
C         -0.00910        0.03190       -0.03340
C          1.47480        0.01820        0.39780
N          1.89680       -0.86340       -0.76840
H         -0.42530        1.93350        0.96710
H         -0.53730        2.10770       -0.80310
H          2.04880        2.24600        0.63100
H          1.57360        2.26890       -2.08760
H          3.12740        1.65560       -1.49750
H          2.09610       -0.27090       -2.83690
H         -0.01050       -1.35230       -1.91510
H         -0.77810       -0.55610        0.46720
H          1.84390       -0.30110        1.36980
