20
gdb 9906	4.10977	1.0985	1.03827	2.2461	71.89	-0.2553	0.0822	0.3374	1226.8586	0.175242	-386.116345	-386.107165	-386.106221	-386.150672	33.736
C         -0.13750        1.58610        0.27120
C         -0.08600        0.09220        0.03650
C          1.19750       -0.56770       -0.40640
C          0.65580       -0.79030        0.99340
O         -1.28030       -0.47930       -0.43560
C         -1.62200       -0.17720       -1.78260
C         -2.93340       -0.89740       -2.05570
O         -3.95110       -0.46620       -1.17420
H          0.79380        1.93380        0.72690
H         -0.27590        2.14310       -0.66130
H         -0.96370        1.83790        0.94430
H          1.11790       -1.39560       -1.10190
H          2.08240        0.04690       -0.53300
H          1.16680       -0.32800        1.83090
H          0.21300       -1.75670        1.20360
H         -1.76080        0.90450       -1.91820
H         -0.83430       -0.51670       -2.47190
H         -3.27060       -0.67890       -3.07440
H         -2.76770       -1.98420       -1.97910
H         -3.56300       -0.50830       -0.29210
