18
gdb 8885	3.8238	1.15641	0.93739	1.7755	65.27	-0.2744	-0.0397	0.2347	1235.9485	0.150926	-422.093417	-422.083919	-422.082974	-422.128287	33.425
C          0.02230        1.53810       -0.02280
C         -0.02790        0.02300        0.18520
C         -1.44160       -0.54240       -0.05950
O         -1.89860       -0.20300       -1.34270
C         -1.49350       -2.05430        0.12330
O         -1.87260       -2.76210       -0.79150
C         -1.09520       -2.69530        1.44080
O         -1.34090       -4.07020        1.43830
H          1.03870        1.91600        0.12000
H         -0.30520        1.79490       -1.03250
H         -0.63240        2.05530        0.68740
H          0.66680       -0.47380       -0.50300
H          0.28940       -0.22610        1.20480
H         -2.11750       -0.11010        0.70100
H         -2.11660       -1.04250       -1.77630
H         -0.02780       -2.48010        1.61630
H         -1.64580       -2.19710        2.25450
H         -1.63670       -4.28020        0.53930
