13
gdb 17011	6.41014	1.40406	1.34472	1.3804	63.13	-0.2672	-0.0152	0.252	878.1395	0.096375	-361.437052	-361.430665	-361.429721	-361.467666	23.949
N         -0.05420       -1.17100       -0.07420
C         -0.02130       -0.01640       -0.02160
C         -0.00680        1.43680        0.01870
C          0.04860        2.12010        1.44020
C          1.54190        1.64190        1.51290
C          1.40330        2.14550        0.03270
C          0.63620        3.31960        0.67150
O          0.57010        4.50480        0.62920
H         -0.74210        1.83820       -0.68180
H         -0.71510        2.07720        2.21170
H          2.21180        2.19890        2.16770
H          1.66890        0.56380        1.61570
H          2.14560        2.13090       -0.76050
