16
gdb 19341	4.06096	1.8324	1.51561	3.2701	70.42	-0.2236	-0.0157	0.2079	852.0211	0.130462	-346.547035	-346.54035	-346.539406	-346.577742	26.403
O         -0.10720        0.02010       -0.03070
C          0.01630        1.22560       -0.04130
C          1.28770        1.92950        0.06040
C          1.37420        3.41200        0.37020
C          1.79860        2.97750       -0.98300
C          3.14640        2.22210       -1.04650
C          3.83910        2.07590        0.28180
C          2.65280        1.20810       -0.02390
H         -0.86720        1.89750       -0.15260
H          0.40770        3.90740        0.40420
H          2.07210        3.77440        1.11570
H          1.25960        3.27540       -1.87310
H          3.64690        2.03050       -1.98590
H          4.78920        1.55360        0.22100
H          3.82850        2.85040        1.04090
H          2.69970        0.12950       -0.07030
