11
gdb 198	8.91138	3.62931	2.57898	0.9982	47.38	-0.1814	0.0635	0.2449	474.5019	0.0864	-285.320198	-285.314886	-285.313942	-285.348469	19.901
O          0.11070        1.33950        0.21170
C          0.07270       -0.00210       -0.00160
C          0.08090       -0.78260       -1.13250
C          0.02190       -2.14050       -0.68370
C         -0.01890       -2.13340        0.68520
N          0.01280       -0.81110        1.09440
H          0.15410        1.77760       -0.64320
H          0.12340       -0.43040       -2.15150
H          0.01140       -3.01830       -1.31130
H         -0.06720       -2.93240        1.40580
H         -0.00480       -0.47510        2.04110
