17
gdb 3357	4.38181	2.97524	2.27355	1.4217	62.57	-0.241	0.0792	0.3202	648.3037	0.151034	-309.71603	-309.710056	-309.709112	-309.74596	23.288
C         -0.05620        1.50040       -0.23660
C          1.39820        1.58340        0.31070
C          1.38640        0.04860        0.57600
O          1.34040       -0.34910        1.93450
C          0.00260       -0.19310        2.39560
C         -0.88910       -0.54890        1.19410
C         -0.06700       -0.03950        0.00370
H         -0.80100        2.05330        0.34390
H         -0.16440        1.78990       -1.28420
H          2.14240        1.90020       -0.42420
H          1.53320        2.18000        1.21610
H          2.18120       -0.52460        0.09350
H         -0.13190       -0.85060        3.25870
H         -0.18050        0.84180        2.72650
H         -1.01250       -1.63460        1.13080
H         -1.88260       -0.09540        1.25790
H         -0.20600       -0.64290       -0.89450
