17
gdb 12327	2.94304	2.20381	1.36027	3.5092	70.68	-0.2387	0.0135	0.2521	911.2822	0.143965	-363.913951	-363.906341	-363.905397	-363.946273	28.322
C         -0.34040        1.50670        0.03670
C          0.08290        0.02460       -0.02170
C          0.83370       -0.30080       -1.28200
C          2.03840       -0.85910       -1.30590
C          2.78730       -1.24650       -0.07020
N          2.05360       -0.92690        1.13940
C          0.82510       -0.34630        1.26380
O          0.33570       -0.13100        2.35930
H          0.53440        2.16350       -0.00440
H         -0.98980        1.75350       -0.80880
H         -0.87680        1.69860        0.96750
H         -0.84180       -0.57070        0.00420
H          0.33830       -0.04350       -2.21580
H          2.54110       -1.06750       -2.24550
H          3.01020       -2.32500       -0.09900
H          3.76610       -0.74100       -0.05920
H          2.48320       -1.14780        2.02640
