16
gdb 9222	7.94676	0.74124	0.69932	1.6663	63.58	-0.2608	-0.0389	0.2218	1516.5673	0.126886	-420.899898	-420.890748	-420.889803	-420.935393	30.61
O          0.20350        1.37050       -0.09450
C          0.07250        0.00300        0.14290
C         -1.35810       -0.47000       -0.06570
O         -2.22290        0.34270       -0.31330
C         -1.63170       -1.96080        0.03050
C         -3.10190       -2.28320        0.32690
C         -3.43450       -3.72520        0.02230
O         -3.95160       -4.49350        0.78940
H         -0.69870        1.68900       -0.25660
H          0.73690       -0.58110       -0.51460
H          0.35820       -0.26190        1.17670
H         -1.33590       -2.39040       -0.93930
H         -0.96060       -2.41260        0.76980
H         -3.36170       -2.06790        1.36620
H         -3.72320       -1.64480       -0.31510
H         -3.15890       -4.04500       -1.01180
