14
gdb 18463	4.09196	1.65743	1.54719	4.6717	57.98	-0.2678	-0.0005	0.2672	855.2092	0.106059	-419.650916	-419.643767	-419.642822	-419.682806	25.625
C          0.16250        0.92970        0.32210
O         -0.43860       -0.04090       -0.52310
C          0.45280       -0.63070       -1.39330
C          1.44020       -1.66440       -0.96050
O          0.92760       -2.37630        0.19160
C         -0.14380       -2.84890       -0.56130
O         -0.96540       -3.63490       -0.23080
C          0.24150       -2.07780       -1.80450
H          0.92970        0.47530        0.96160
H          0.61630        1.74450       -0.26020
H         -0.63450        1.33790        0.94590
H          0.80010        0.00600       -2.21220
H          2.50430       -1.71670       -1.14420
H          0.13380       -2.40790       -2.82730
