15
gdb 1323	5.07043	1.87702	1.67008	4.9807	62.44	-0.2708	0.0174	0.2882	784.5465	0.124443	-304.696023	-304.688535	-304.687591	-304.727176	27.186
C         -0.08230        1.53710       -0.02070
C         -0.02320        0.02560        0.02290
C         -1.23600       -0.68920       -0.53760
N          1.30570       -0.54540       -0.22370
C          0.72170       -0.66490        1.13220
C          1.37850        0.06060        2.19220
N          1.87480        0.64000        3.06100
H          0.82910        1.97760        0.38690
H         -0.19430        1.87710       -1.05570
H         -0.93740        1.90810        0.55360
H         -1.36000       -0.44900       -1.59940
H         -1.14410       -1.77610       -0.44330
H         -2.14930       -0.38020       -0.01910
H          1.23560       -1.44640       -0.69210
H          0.34210       -1.63430        1.44460
