17
gdb 16559	3.13979	2.67505	2.15068	2.1721	66.45	-0.2436	0.0259	0.2695	721.9737	0.146774	-363.892222	-363.886319	-363.885375	-363.922011	24.169
C         -0.03440        1.54370       -0.01460
C          1.46120        1.99900       -0.02130
C          2.25030        0.67870        0.11370
C          1.36400       -0.31760       -0.65320
C          0.02940        0.00570        0.02220
O          0.08320       -0.45560        1.39860
C          1.27500       -0.24610        2.00980
N          2.32370        0.27750        1.53050
H         -0.59600        1.92210        0.84250
H         -0.55610        1.87430       -0.91790
H          1.71490        2.49930       -0.96160
H          1.69780        2.68460        0.79480
H          3.26950        0.75540       -0.27040
H          1.31810       -0.08360       -1.72190
H          1.66860       -1.35940       -0.52870
H         -0.84590       -0.48720       -0.40190
H          1.23970       -0.60360        3.03730
