19
gdb 3215	3.24168	2.98645	2.05826	0.2861	70.25	-0.2497	0.0867	0.3364	738.463	0.172126	-273.760271	-273.75306	-273.752116	-273.790846	28.148
C         -0.44720        1.54090        0.36310
C         -0.11080        0.06180        0.20550
C          0.28410       -0.46250       -1.18400
C          1.60560        0.10030       -1.62700
C          1.59450       -1.02420       -0.62950
C          1.24600       -0.51990        0.77960
C          2.23590        0.39060        1.49860
H          0.33180        2.19020       -0.04760
H         -1.38130        1.77930       -0.15800
H         -0.57970        1.80790        1.41750
H         -0.94080       -0.53030        0.60400
H         -0.40020       -0.91700       -1.89130
H          1.90980       -0.18060       -2.63050
H          1.91600        1.10290       -1.34500
H          2.06780       -1.97480       -0.84700
H          1.01400       -1.36840        1.43120
H          2.53460        1.24600        0.88530
H          1.81130        0.78210        2.42980
H          3.14650       -0.16140        1.75710
