18
gdb 12796	3.48656	2.01536	1.5737	1.475	72.54	-0.2236	0.02	0.2436	860.1857	0.155316	-347.805344	-347.798256	-347.797312	-347.836031	28.827
O         -0.05240        1.36130        0.12530
C          0.01320       -0.03330       -0.03250
C         -0.57200       -0.59740       -1.29720
C         -1.32150       -0.72050        0.03750
C         -1.38030       -2.03940        0.71330
C         -0.28510       -2.73310        1.02950
C          1.10610       -2.22390        0.74310
C          1.17550       -0.68540        0.69340
H          0.66890        1.74790       -0.38410
H         -0.95900        0.12140       -2.01090
H         -0.16850       -1.50730       -1.72840
H         -2.18150       -0.06920        0.14830
H         -2.36550       -2.44490        0.92700
H         -0.37560       -3.71250        1.49050
H          1.80500       -2.58670        1.50520
H          1.46730       -2.64980       -0.20410
H          2.12670       -0.36880        0.24580
H          1.16160       -0.28990        1.71610
