16
gdb 2019	5.62052	2.02689	1.94642	2.977	60.9	-0.2247	0.0665	0.2913	718.6605	0.137845	-325.685245	-325.678707	-325.677763	-325.715786	24.584
O         -0.07410        1.41700        0.05300
C         -0.00180       -0.00090        0.00100
C         -1.41150       -0.52780        0.02130
C         -2.56400       -0.26500       -0.97630
N         -3.23700       -1.19940        0.04760
C         -1.91440       -1.98710       -0.01680
C         -2.50700       -0.33890        1.09680
H          0.82200        1.76540        0.04350
H          0.50670       -0.34690       -0.91420
H          0.55570       -0.40950        0.86010
H         -2.99780        0.73710       -1.00600
H         -2.48870       -0.70000       -1.97740
H         -1.78930       -2.55310       -0.94470
H         -1.73960       -2.61730        0.86030
H         -2.37760       -0.84380        2.05880
H         -2.93640        0.65770        1.22150
