13
gdb 13738	3.36447	1.63374	1.34314	5.7175	59.64	-0.2704	-0.053	0.2174	921.2406	0.092825	-398.595638	-398.587614	-398.58667	-398.628955	27.288
C          0.41170        1.55290        0.14380
C         -0.29090        0.22340       -0.01550
O         -0.88970       -0.33390        0.86870
C         -0.21100       -0.39270       -1.40200
O         -0.48310       -1.78270       -1.49960
C         -1.43910       -0.90720       -2.06840
C         -2.74450       -0.83070       -1.44610
N         -3.82040       -0.75550       -1.03260
H          1.49160        1.42710        0.00060
H          0.06970        2.26270       -0.61860
H          0.21870        1.95500        1.13830
H          0.58160       -0.03040       -2.05730
H         -1.47080       -0.89250       -3.15710
