16
gdb 8567	4.07237	2.02459	1.7279	4.4408	63.82	-0.2595	0.0109	0.2704	785.3545	0.133042	-383.771973	-383.765887	-383.764942	-383.802105	24.542
O          0.03290        0.09740        0.57800
C         -0.02340        1.18650        0.08000
C         -1.33290        1.94140       -0.17140
C         -1.09690        3.30720       -0.81840
C         -0.08870        3.12010       -1.99050
C          0.99640        3.12790       -0.89020
C          0.05480        4.01630       -0.04630
O          1.12040        1.82050       -0.29660
H         -1.96030        1.29640       -0.79640
H         -1.84300        2.02960        0.79420
H         -2.02710        3.84870       -0.99940
H         -0.16550        2.22490       -2.61310
H         -0.01960        4.00840       -2.62240
H          2.01500        3.44450       -1.11120
H          0.15010        5.06920       -0.32140
H          0.10400        3.90910        1.04050
