16
gdb 9330	4.76226	0.94487	0.80018	2.05	63.35	-0.2643	-0.0834	0.1809	1389.9216	0.127646	-420.913192	-420.904034	-420.90309	-420.948629	30.249
C          0.07690        1.37540       -0.20290
C          0.24370       -0.13850       -0.04400
C          0.68860       -0.51040        1.35950
O          0.81930       -1.94980        1.41630
C          1.20480       -2.45250        2.58410
O          1.45240       -1.82900        3.58730
C          1.31820       -3.98170        2.55840
O          1.09000       -4.66850        1.60350
H          1.01680        1.90380       -0.01050
H         -0.24330        1.62570       -1.21770
H         -0.67410        1.77000        0.49000
H         -0.69980       -0.65040       -0.26360
H          0.98050       -0.51740       -0.76100
H          1.65340       -0.06140        1.61870
H         -0.03530       -0.19500        2.11860
H          1.64080       -4.37570        3.54310
