17
gdb 4921	6.71745	1.21354	1.0437	1.4593	72.67	-0.1834	0.0347	0.2182	1136.5039	0.142332	-363.888167	-363.879959	-363.879015	-363.92075	29.973
C         -0.03690        1.44590       -0.05580
N          0.05150        0.00000        0.03390
C         -1.14660       -0.71120        0.03480
C         -2.41530       -0.24110        0.21670
O         -3.30820       -1.28660        0.21670
C         -2.59910       -2.42560        0.01780
C         -3.36850       -3.69720       -0.02880
C         -1.27440       -2.13890       -0.09800
H          0.96920        1.86910       -0.10320
H         -0.61210        1.79880       -0.92800
H         -0.52290        1.83830        0.84470
H          0.73440       -0.39390       -0.59770
H         -2.83600        0.73670        0.36860
H         -4.10380       -3.69250       -0.84170
H         -2.69010       -4.53870       -0.18610
H         -3.91660       -3.86830        0.90470
H         -0.47530       -2.84850       -0.25040
