13
gdb 7719	3.9513	2.01306	1.37813	3.0909	58.75	-0.2483	0.0092	0.2575	830.1895	0.098422	-431.950994	-431.944538	-431.943594	-431.981863	24.169
N         -0.07190        1.22250       -0.43280
C          0.03260        0.05720        0.04030
N         -1.03550       -0.57570        0.66020
C         -1.14960       -1.94770        0.83560
N         -2.26590       -2.49830        1.04330
O          0.04450       -2.60620        0.75250
C          1.17520       -1.77650        0.91950
O          1.16520       -0.70560       -0.00140
H          0.82460        1.54430       -0.79040
H         -1.90280       -0.05960        0.67220
H         -2.14700       -3.49510        1.20880
H          1.20870       -1.38890        1.94620
H          2.05230       -2.38190        0.69700
