12
gdb 70	8.9331	4.19405	2.96046	3.7163	44.42	-0.2424	0.0327	0.2751	441.85	0.10227	-248.430371	-248.424309	-248.423365	-248.459383	19.918
C         -0.09780        1.44920        0.04560
N          0.01040        0.00370       -0.00070
C          0.05320       -0.71430        1.25260
C          0.06730       -0.64070       -1.20060
O          0.03640       -0.11010       -2.29110
H          0.75650        1.88750        0.57650
H         -0.11650        1.81630       -0.98050
H         -1.01640        1.75520        0.56150
H         -0.85450       -0.53660        1.84390
H          0.13300       -1.78700        1.05850
H          0.91640       -0.40740        1.85760
H          0.14760       -1.73800       -1.06810
