19
gdb 18084	5.00598	1.1402	1.11429	2.0313	71.84	-0.228	0.0776	0.3055	1155.6346	0.165702	-364.99413	-364.986023	-364.985079	-365.027409	29.472
C          0.60750        1.50650       -0.08500
O          0.45570        0.11620       -0.23960
C          1.63570       -0.51590       -0.69100
C          1.35350       -1.99850       -0.74100
C          0.96170       -2.77560       -1.93370
C          1.63530       -2.28390       -3.21210
C          2.97830       -2.45830       -2.46070
N          2.30070       -3.01810       -1.23200
H          1.39000        1.75320        0.65050
H          0.86580        1.99970       -1.03600
H         -0.34740        1.90240        0.26900
H          1.93390       -0.10920       -1.66880
H          2.46850       -0.32180        0.00830
H          0.89080       -2.33840        0.18350
H          0.16240       -3.50950       -1.89670
H          1.52880       -2.98380       -4.04250
H          1.35820       -1.28520       -3.56360
H          3.62060       -3.22800       -2.89230
H          3.58420       -1.56560       -2.27680
