17
gdb 17255	4.31468	1.87312	1.83891	1.0006	67.31	-0.2367	0.0717	0.3084	795.3858	0.144666	-363.807478	-363.80129	-363.800346	-363.837553	25.383
C         -0.00860        1.47650       -0.03260
N          1.23950        0.67820        0.03760
C         -0.05950        0.00430       -0.00140
C         -0.53130       -0.89250        1.16070
C         -1.09640       -2.02870        0.27870
C         -0.00190       -2.26630       -0.78710
C         -0.51930       -0.86180       -1.17410
O         -1.85020       -1.27370       -0.73130
H         -0.23120        2.04810        0.86450
H         -0.25310        1.98390       -0.96310
H          1.68100        0.64950       -0.88000
H          0.29180       -1.20120        1.81000
H         -1.31660       -0.43100        1.76370
H         -1.66180       -2.83330        0.74750
H          1.03760       -2.38570       -0.47120
H         -0.29830       -3.02350       -1.51320
H         -0.47930       -0.44800       -2.18290
