20
gdb 9686	4.54275	1.10612	1.01393	2.0151	71.67	-0.2557	0.0841	0.3398	1236.5817	0.174704	-386.129155	-386.119582	-386.118638	-386.163597	34.528
C          0.64210        1.40940        0.15860
C         -0.16490        0.12980       -0.09520
C          0.28480       -0.57380       -1.35350
O          1.55250       -1.25200       -1.31330
C          0.35620       -2.03320       -1.54380
C          0.00060       -3.03380       -0.46770
C          0.32020       -2.58110       -2.96090
O          1.32210       -3.56640       -3.14870
H          1.70480        1.17560        0.27110
H          0.54010        2.11500       -0.67310
H          0.30430        1.91360        1.06870
H         -0.07500       -0.54040        0.76400
H         -1.23030        0.37330       -0.20040
H          0.15390        0.02770       -2.25800
H         -1.07190       -3.25650       -0.48710
H          0.54140       -3.96640       -0.65300
H          0.26630       -2.67090        0.52580
H         -0.63800       -3.07310       -3.16070
H          0.43460       -1.75430       -3.67730
H          2.15870       -3.14240       -2.92270
