16
gdb 302	5.09412	2.91073	2.50204	1.2745	56.95	-0.2458	0.0798	0.3256	607.2163	0.141106	-271.623957	-271.616756	-271.615812	-271.654105	26.806
C         -0.06870        1.52220       -0.09060
C          0.02750        0.02090        0.06080
C          1.33150       -0.72310       -0.18080
C          0.72360       -0.66110        1.20320
C          1.40610        0.10090        2.31650
O          0.04320       -1.81200        1.64680
H          0.85350        2.02560        0.21500
H         -0.25440        1.79260       -1.13590
H         -0.88750        1.93490        0.50950
H         -0.85680       -0.52060       -0.26420
H          1.28550       -1.67130       -0.70510
H          2.22260       -0.13410       -0.37790
H          1.89950        1.00550        1.95260
H          0.68240        0.38560        3.08720
H          2.17490       -0.52180        2.79130
H          0.70440       -2.43940        1.96070
