15
gdb 9218	7.20285	0.90321	0.81065	3.6395	59.88	-0.2523	-0.0038	0.2485	1335.8558	0.117325	-436.993677	-436.98471	-436.983765	-437.029318	29.272
C          0.04050        1.35580        0.00750
O         -0.04740       -0.07810        0.00280
C         -1.28620       -0.58120        0.01220
O         -2.29590        0.08090        0.02400
C         -1.25350       -2.09630        0.00600
N         -2.60640       -2.59470        0.01660
C         -2.88310       -3.92070        0.00720
O         -2.04230       -4.79620       -0.00860
H          1.10550        1.58490       -0.00060
H         -0.44930        1.77160       -0.87610
H         -0.43440        1.76490        0.90230
H         -0.70110       -2.44240       -0.87610
H         -0.68450       -2.44900        0.87490
H         -3.33880       -1.89950        0.02710
H         -3.97270       -4.11910        0.01580
