14
gdb 21060	5.74839	1.63941	1.28639	2.8809	73.01	-0.218	-0.0428	0.1753	903.8029	0.108867	-374.879249	-374.872196	-374.871252	-374.911054	25.304
C          0.07590        1.46140        0.00410
N         -0.00380        0.00920        0.00400
N          0.03200       -0.59910       -1.19210
C          0.05510       -1.89530       -1.20490
C          0.05600       -2.72750       -0.00900
N          0.06640       -4.01240       -0.09510
C          0.04750       -1.90430        1.19430
N          0.02490       -0.60620        1.18940
H          1.11540        1.79810       -0.07860
H         -0.49120        1.84120       -0.84600
H         -0.34810        1.82490        0.93930
H          0.07340       -2.37090       -2.18050
H          0.06670       -4.43160        0.83810
H          0.05950       -2.37110        2.17640
