20
gdb 14175	3.63535	1.70653	1.65954	1.4843	74.58	-0.2425	0.0851	0.3276	914.0268	0.177809	-349.003558	-348.99569	-348.994746	-349.035074	30.664
C         -0.03420        1.55790        0.04760
C          0.04420        0.04070        0.03030
C         -1.24480       -0.61830       -0.43450
C          1.31500       -0.69150       -0.35460
C          2.64000        0.04550       -0.30480
O          2.70610        0.68540        0.96910
C          1.87990       -0.01900        1.89510
C          0.81990       -0.73350        1.07820
H          0.89550        2.01890        0.38260
H         -0.26430        1.93870       -0.95450
H         -0.84070        1.88990        0.71220
H         -1.50420       -0.29880       -1.45070
H         -1.16330       -1.71000       -0.43850
H         -2.08150       -0.34810        0.22040
H          1.24360       -1.55820       -1.00320
H          3.46710       -0.67200       -0.42970
H          2.75470        0.82920       -1.06250
H          2.46650       -0.75700        2.46580
H          1.48840        0.72170        2.60190
H          0.37920       -1.63150        1.49810
