10
gdb 764	9.66876	3.80816	2.74184	3.6291	43.39	-0.2268	0.0283	0.255	445.3236	0.076735	-297.554699	-297.549748	-297.548803	-297.582689	17.921
N          0.01920        1.36880        0.15870
C         -0.02970       -0.00660        0.04180
N         -1.12380       -0.74690        0.04100
C         -0.62220       -2.01620       -0.01370
N          0.68990       -2.11630       -0.05510
N          1.06420       -0.79860       -0.01650
H          0.71870        1.82400       -0.41160
H         -0.89500        1.77720        0.01880
H         -1.25520       -2.89120       -0.02990
H          2.03920       -0.55540        0.02240
