18
gdb 18275	4.23439	1.51445	1.26105	0.9851	66.85	-0.2565	0.0777	0.3342	980.6982	0.154866	-384.930113	-384.922587	-384.921643	-384.962026	28.5
O         -0.05920        1.40540       -0.04260
C          0.00710       -0.01270        0.02180
C         -1.41780       -0.54850        0.00760
C         -2.20700       -0.19630       -1.28140
C         -3.22660       -1.34360       -1.48100
C         -2.56610       -2.53540       -0.81720
O         -1.18610       -2.70650       -1.17630
C         -1.49860       -2.06400        0.07140
H          0.83770        1.74610       -0.10400
H          0.55520       -0.43060       -0.83670
H          0.52220       -0.34420        0.93850
H         -1.94020       -0.14840        0.88780
H         -2.67980        0.78460       -1.21780
H         -1.51490       -0.16840       -2.12680
H         -4.17280       -1.13650       -0.96540
H         -3.46170       -1.51990       -2.53530
H         -3.11440       -3.45720       -0.63810
H         -1.18770       -2.60520        0.96250
