22
gdb 6865	3.10309	1.73554	1.49847	1.2452	77.43	-0.2581	0.0654	0.3235	983.2754	0.20147	-350.23888	-350.230581	-350.229637	-350.27065	33.477
C         -0.02390        1.55250        0.00130
C         -0.00740        0.02080       -0.00800
O         -1.35500       -0.47280        0.05770
C          0.69110       -0.51690       -1.27430
C          0.77840       -2.04910       -1.28700
C          1.47950       -2.57440       -0.02700
C          0.78520       -2.06220        1.24230
C          0.68680       -0.53000        1.24900
H          0.99080        1.96380        0.00430
H         -0.53620        1.94120       -0.88760
H         -0.55160        1.92130        0.88590
H         -1.81950       -0.15980       -0.72610
H          0.15510       -0.15360       -2.16220
H          1.70040       -0.08700       -1.32880
H         -0.23660       -2.46100       -1.33300
H          1.30220       -2.38610       -2.18860
H          1.49990       -3.67010       -0.03310
H          2.52820       -2.24330       -0.02950
H         -0.22580       -2.48070        1.29770
H          1.32170       -2.40220        2.13540
H          1.69230       -0.09350        1.30520
H          0.13680       -0.18540        2.13160
