17
gdb 15642	3.2961	1.84365	1.2958	3.1043	70.87	-0.2079	0.0006	0.2085	963.1579	0.142524	-363.914627	-363.906756	-363.905812	-363.947505	28.765
C          0.02990        1.57140        0.15600
C         -0.03360        0.05930       -0.07640
N         -1.38070       -0.47650       -0.00840
C         -2.13080       -0.68720        1.16040
C         -3.34480       -1.17880        0.89410
C         -3.47290       -1.32980       -0.59840
C         -2.11760       -0.83600       -1.12790
O         -1.73380       -0.76270       -2.27500
H          1.06530        1.92020        0.09270
H         -0.55840        2.10120       -0.59840
H         -0.35740        1.84150        1.14380
H          0.33410       -0.18610       -1.07600
H          0.59530       -0.46690        0.65190
H         -1.68250       -0.45300        2.11630
H         -4.10280       -1.43030        1.61930
H         -3.63860       -2.36230       -0.92730
H         -4.27750       -0.72970       -1.03900
