14
gdb 20670	3.39145	2.24618	1.36247	5.0417	67.65	-0.2263	-0.0369	0.1894	850.1638	0.109213	-378.75687	-378.749987	-378.749043	-378.7879	25.621
C         -0.02430        1.52250        0.01550
C         -0.00280        0.02630       -0.02080
C         -0.04500       -0.69710       -1.17020
N         -0.02330       -2.05910       -1.15860
N          0.03990       -2.80890       -0.05030
C          0.08230       -2.16450        1.07810
C          0.06740       -0.70380        1.24350
O          0.11030       -0.16320        2.34490
H          0.86880        1.90340        0.52230
H         -0.07740        1.95650       -0.98660
H         -0.87810        1.87630        0.60310
H         -0.09790       -0.24740       -2.15650
H         -0.05490       -2.58750       -2.01480
H          0.13370       -2.77510        1.97450
