14
gdb 10975	2.82716	2.53784	1.86631	1.8046	57.1	-0.2314	-0.0279	0.2036	740.7133	0.107011	-419.652915	-419.646217	-419.645273	-419.683567	25.654
O          0.26940        1.39490       -0.14260
C          0.12060        0.03220       -0.03990
C         -1.25170       -0.76850       -0.04320
C         -0.34390       -1.91850        0.46990
O          0.54240       -2.15390       -0.63470
C          0.91590       -0.81450       -1.04610
C          0.36970       -0.78520        1.24630
O          0.70340       -0.51810        2.36210
H          0.16280        1.77730        0.73680
H         -1.97320       -0.40460        0.69080
H         -1.70510       -0.93270       -1.02200
H         -0.70140       -2.84870        0.89950
H          0.61630       -0.63900       -2.08520
H          1.99740       -0.66890       -0.95060
