13
gdb 11207	4.7141	1.51173	1.34494	2.6155	55.47	-0.2632	-0.0556	0.2076	888.6452	0.09537	-435.756849	-435.749838	-435.748894	-435.789019	24.431
N         -0.10130        1.12530        0.77570
C         -0.02760        0.04600        0.14130
O          0.92150       -0.32490       -0.76420
C          0.73210       -1.69630       -1.12500
C         -0.70830       -1.96130       -0.67480
O         -0.95410       -0.94290        0.29050
C         -1.73360       -1.86190       -1.80670
O         -1.51800       -2.25670       -2.92090
H          0.69580        1.71830        0.55820
H          0.85190       -1.81330       -2.20310
H          1.45930       -2.31930       -0.59510
H         -0.83080       -2.93690       -0.19090
H         -2.69780       -1.40290       -1.50310
