16
gdb 11210	5.16502	1.20669	1.02982	1.7309	66.18	-0.2474	-0.0309	0.2165	1085.2912	0.129834	-383.785617	-383.778021	-383.777077	-383.818324	27.461
O          0.13220       -0.13240       -0.02450
C          0.10410        1.06770        0.04490
C          1.31030        1.97510        0.05590
C          1.32760        2.93120       -1.17260
C          2.24020        4.08760       -0.74490
C          2.08750        4.17790        0.77790
O          2.49970        5.05980        1.48200
C          1.31750        2.93850        1.25720
H         -0.86630        1.62020        0.10270
H          2.20630        1.34730        0.05650
H          1.66030        2.42120       -2.07870
H          0.31160        3.30160       -1.35990
H          3.29350        3.85940       -0.95330
H          2.02170        5.04810       -1.21690
H          0.29510        3.26490        1.49930
H          1.74870        2.52920        2.17290
