17
gdb 6197	3.71002	1.68131	1.5636	2.3576	65.66	-0.2649	0.0249	0.2899	900.7322	0.141126	-401.030547	-401.022569	-401.021625	-401.062703	29.857
C         -0.12150        1.63470        0.26870
C          0.07330        0.14960        0.02050
C         -1.23470       -0.61050       -0.19370
O          0.95400       -0.01890       -1.08010
C          1.80290       -1.11600       -0.79470
C          1.76980       -1.22760        0.71430
N          2.53650       -1.93320        1.42310
O          0.76310       -0.42600        1.15470
H          0.84630        2.10720        0.44810
H         -0.58420        2.09660       -0.60710
H         -0.76730        1.79590        1.13520
H         -1.76410       -0.20180       -1.05820
H         -1.03710       -1.67050       -0.37490
H         -1.87520       -0.52460        0.68790
H          1.44870       -2.04860       -1.25720
H          2.80860       -0.90640       -1.16530
H          2.29940       -1.84910        2.41250
