20
gdb 19658	4.19293	1.96387	1.85393	0.1465	77.88	-0.2669	0.0943	0.3612	831.9621	0.180294	-311.841396	-311.834992	-311.834048	-311.87148	27.102
C         -0.21140        1.62150       -0.04000
C          0.04330        0.12090        0.00030
C          1.10830       -0.58760       -0.89600
C          2.41500        0.13450       -0.51390
C          2.38770       -0.31810        0.96320
C          2.54920       -1.85350        0.79910
C          1.14470       -1.75750        0.18750
C          0.81870       -0.56240        1.13820
H          0.68550        2.20840        0.17610
H         -0.58850        1.93390       -1.02080
H         -0.96600        1.89910        0.70470
H         -0.91070       -0.40960       -0.11550
H          0.91690       -0.78580       -1.95090
H          3.29450       -0.24580       -1.04210
H          2.37100        1.21500       -0.66560
H          2.97020        0.24570        1.69120
H          3.39020       -2.22080        0.20080
H          2.51710       -2.38550        1.75490
H          0.47570       -2.60460        0.03960
H          0.43870       -0.68930        2.15230
