16
gdb 8490	3.02862	1.94635	1.5006	1.0458	61.	-0.2254	0.0683	0.2938	867.5098	0.128308	-420.829366	-420.821111	-420.820167	-420.861621	31.045
O         -0.08640        1.43580       -0.13010
C          0.00230        0.03430        0.01960
C          0.28430       -0.55970        1.45290
C         -1.05590       -1.27600        1.38120
O         -1.18270       -2.55050        1.89650
C         -2.16650       -0.27040        1.22070
C         -1.34140       -0.67350        0.00560
O         -1.90870       -1.27060       -1.10540
H          0.80220        1.80260       -0.08480
H          0.67760       -0.40760       -0.72490
H          1.13110       -1.24940        1.46180
H          0.39250        0.17750        2.25410
H         -2.02070       -2.92040        1.59790
H         -3.15980       -0.71290        1.20330
H         -2.11880        0.73040        1.64350
H         -2.45300       -0.61540       -1.55720
