15
gdb 16850	3.94663	2.03844	1.54439	3.1815	68.34	-0.2225	-0.0586	0.164	810.7765	0.120624	-362.661913	-362.655521	-362.654577	-362.692479	24.87
O         -0.05020        0.18930        0.76430
C         -0.03490        1.23690        0.14820
C         -1.33560        1.83730       -0.40320
N         -1.36360        3.26950       -0.70190
C         -0.94240        4.20660        0.31990
C         -0.07470        3.95050       -0.88410
C          1.17550        3.19480       -0.69500
C          1.20540        1.95550       -0.18000
H         -1.55830        1.29690       -1.33270
H         -2.14490        1.60380        0.29420
H         -1.52070        5.12520        0.37710
H         -0.57240        3.82820        1.27100
H         -0.06400        4.69830       -1.67380
H          2.09670        3.69560       -0.98370
H          2.13470        1.42550        0.00010
