17
gdb 19884	3.391	2.17868	1.97416	2.3217	66.51	-0.2144	0.0646	0.2789	767.6154	0.144445	-363.810107	-363.80358	-363.802636	-363.84039	26.452
O          0.09070        1.42300       -0.08950
C         -0.00460        0.03050        0.00380
C         -0.44740       -0.67680        1.25850
C         -1.21320        0.11050        2.32910
N         -2.58910        0.38240        1.84510
C         -2.71420        1.42520        0.81440
C         -2.63670       -0.00820        0.42160
C         -1.33810       -0.66940        0.01600
H          0.86830        1.69630        0.40950
H          0.76330       -0.49060       -0.57080
H          0.09780       -1.56120        1.57290
H         -1.28680       -0.49660        3.23650
H         -0.71580        1.04860        2.60420
H         -3.67980        1.92590        0.81070
H         -1.86230        2.05560        0.59850
H         -3.53540       -0.52510        0.09400
H         -1.43060       -1.54600       -0.61540
