19
gdb 7634	4.79752	1.23129	1.02519	2.7158	73.21	-0.2294	-0.0221	0.2073	1153.621	0.163382	-365.058984	-365.050403	-365.049459	-365.091941	31.861
C          0.23640        1.50510       -0.28920
C          0.02490        0.01210       -0.02510
C          0.72600       -0.42270        1.26440
N         -1.40250       -0.27560        0.06760
C         -1.82280       -1.69320        0.18820
C         -2.91580       -1.39660       -0.84660
O         -3.88780       -1.96330       -1.24350
C         -2.24000       -0.05010       -1.13590
H          1.30380        1.73060       -0.37040
H         -0.24220        1.82280       -1.22050
H         -0.18380        2.09870        0.52900
H          0.47170       -0.55500       -0.86970
H          0.31790        0.12310        2.12110
H          0.59990       -1.49340        1.45190
H          1.79930       -0.22040        1.20190
H         -1.09460       -2.42210       -0.20770
H         -2.14110       -2.01520        1.18470
H         -2.86780        0.84640       -1.12130
H         -1.68810       -0.08490       -2.09110
