10
gdb 3940	7.84763	2.1922	1.71353	3.0015	43.75	-0.2207	0.0547	0.2753	644.8994	0.068384	-392.650949	-392.645218	-392.644274	-392.68019	21.373
O          0.01670        1.31180        0.12730
C          0.06250       -0.02400        0.04050
N          0.13740       -0.75140       -1.02880
N          0.15820       -2.09260       -0.59960
C          0.09380       -2.06610        0.69390
O          0.08460       -3.10410        1.54040
N          0.03020       -0.78600        1.17900
H          0.05070        1.64610       -0.77910
H          0.13630       -3.90130        0.99610
H         -0.02630       -0.48080        2.13560
