19
gdb 6128	3.08804	1.66925	1.44358	3.4078	73.61	-0.2395	0.0416	0.2811	989.7983	0.164101	-365.098349	-365.089176	-365.088231	-365.13183	32.702
C          0.00220        1.44900        0.07170
N         -0.00210        0.01040        0.05070
C         -1.08490       -0.97340        0.04660
C          0.01360       -2.09160        0.01980
C          0.09120       -2.95750        1.27550
C          0.06700       -2.92080       -1.26160
C          1.01810       -0.90540        0.02760
O          2.21740       -0.78350        0.01790
H          1.04480        1.77630        0.06650
H         -0.50410        1.86790       -0.80700
H         -0.48690        1.84190        0.97190
H         -1.70980       -0.95210        0.94750
H         -1.72670       -0.92600       -0.84140
H         -0.72430       -3.68890        1.29940
H          1.03850       -3.50490        1.29960
H          0.03260       -2.35160        2.18530
H         -0.00880       -2.28890       -2.15230
H          1.01370       -3.46690       -1.31950
H         -0.74890       -3.65150       -1.29110
