16
gdb 17502	3.06335	2.43814	1.67029	1.1105	63.8	-0.2267	0.0639	0.2905	801.9208	0.128448	-383.660301	-383.652932	-383.651988	-383.691287	28.976
C         -0.05020        1.49660       -0.01350
C          0.14250        0.01820       -0.00970
O         -0.81480       -0.83510        0.63950
C          0.57950       -0.95310        0.98860
C          1.31910       -1.80710       -0.08640
C          0.37230       -2.24050       -1.19260
C          0.86460       -0.82190       -1.13940
O          1.64250       -0.22030       -2.11050
H          0.87010        1.99490       -0.33240
H         -0.84760        1.78620       -0.70790
H         -0.32180        1.85040        0.98440
H          0.84060       -0.84610        2.03500
H          2.29660       -2.24730        0.05450
H          0.85670       -2.83570       -1.96100
H         -0.65710       -2.49470       -0.97320
H          1.10270       -0.10380       -2.90060
