16
gdb 13174	3.64564	1.46083	1.11837	2.5097	64.71	-0.2575	0.0183	0.2758	1028.0578	0.131374	-379.89915	-379.89101	-379.890066	-379.932461	28.543
N         -0.18900        1.39310        0.08420
C          0.03320       -0.05000       -0.00790
C          0.70010       -0.46690       -1.26290
N          1.23530       -0.75180       -2.24760
C          0.83400       -0.53640        1.20470
C          0.04800       -0.49750        2.53030
O         -0.04460       -1.93790        2.56260
C          0.84000       -2.06350        1.43070
H          0.69260        1.88720       -0.02540
H         -0.79160        1.70700       -0.67060
H         -0.94890       -0.53870        0.01540
H          1.81430       -0.05390        1.21640
H          0.61000       -0.10320        3.38590
H         -0.93290       -0.01210        2.49110
H          0.40990       -2.67770        0.63020
H          1.81460       -2.48080        1.71240
