18
gdb 1276	7.61584	1.04954	0.95462	3.43	64.98	-0.2427	0.0361	0.2788	1222.1374	0.158721	-327.025329	-327.01624	-327.015295	-327.060099	31.054
C          0.01670        1.55290        0.09880
C         -0.04790        0.02810       -0.02380
C          0.73180       -0.50480       -1.22930
C          0.67540       -2.02850       -1.35640
C          1.31950       -2.53310       -2.64710
N          1.79490       -3.81400       -2.58810
O          1.40170       -1.85940       -3.65560
H          1.05070        1.89680        0.21370
H         -0.39370        2.03790       -0.79370
H         -0.55100        1.90960        0.96390
H          0.33870       -0.42970        0.89700
H         -1.09670       -0.28940       -0.10090
H          0.34750       -0.06820       -2.15670
H          1.78000       -0.18680       -1.16090
H          1.13940       -2.51280       -0.48800
H         -0.37230       -2.36170       -1.36740
H          1.64650       -4.40250       -1.78740
H          2.12900       -4.23430       -3.44000
