18
gdb 8337	5.63339	1.24128	1.2312	1.3656	67.51	-0.2382	0.0703	0.3085	1035.2144	0.153522	-384.909038	-384.90132	-384.900376	-384.941493	29.186
O          0.60080        0.60390       -0.92700
C         -0.07440       -0.24480       -0.03500
C          0.23200       -0.17530        1.48640
C         -1.27080       -0.42470        1.74810
C         -1.76830       -1.78180        2.29340
C         -2.41630       -0.93430        3.40460
O         -1.90930        0.28550        2.82320
C         -1.57140        0.00710        0.29480
H          0.48870        1.50940       -0.61840
H          0.08020       -1.25530       -0.42370
H          0.96290       -0.86640        1.91370
H          0.48840        0.84790        1.78380
H         -2.46410       -2.31620        1.64360
H         -0.98350       -2.46620        2.62130
H         -3.51220       -0.94630        3.43800
H         -2.02860       -1.09620        4.41730
H         -1.79800        1.07920        0.27300
H         -2.33780       -0.53260       -0.26720
