16
gdb 12580	3.10464	2.09697	1.27284	4.7764	72.02	-0.2079	0.0026	0.2105	928.3518	0.131364	-379.958511	-379.950534	-379.949589	-379.990802	29.424
C          0.03130        1.53640        0.02390
C         -0.00870        0.04270        0.02190
C         -1.06770       -0.78990       -0.00180
N         -2.41560       -0.51470        0.04100
C         -0.57670       -2.21360        0.01460
O          0.84100       -2.11240        0.03340
C          1.20080       -0.77570        0.04600
N          2.39950       -0.36290        0.06390
H          0.90210        1.88480       -0.53780
H         -0.86850        1.97140       -0.42650
H          0.12250        1.94180        1.03870
H         -2.67420        0.43930       -0.16660
H         -3.02160       -1.18350       -0.41200
H         -0.92290       -2.76020        0.90240
H         -0.89260       -2.77910       -0.87440
H          3.05030       -1.14850        0.06370
