14
gdb 10578	2.63168	1.9938	1.36307	4.8411	69.79	-0.258	-0.0085	0.2494	916.5376	0.105016	-341.523379	-341.51526	-341.514316	-341.555621	29.443
C         -0.17710        1.44110       -0.09360
N          0.05030        0.00290        0.00420
C          1.38950       -0.49180       -0.18980
C          0.77130       -0.50880        1.19400
C          1.29390        0.38460        2.19650
C          1.70750        1.12610        3.04670
C          0.24850       -1.76190        1.70770
N         -0.14960       -2.76730        2.11440
H          0.66200        2.04920        0.27050
H         -0.35740        1.67690       -1.14600
H         -1.07180        1.69950        0.47820
H          1.48550       -1.42860       -0.73090
H          2.20090        0.22180       -0.32430
H          2.08030        1.77500        3.80090
