18
gdb 11504	4.37885	1.05208	0.94038	2.8842	72.52	-0.257	0.0334	0.2904	1244.7631	0.154109	-343.975576	-343.966945	-343.966001	-344.0094	30.854
C         -0.01220        1.48940       -0.27450
C          0.01640       -0.00320        0.10870
C          0.69730       -0.27600        1.47660
C          2.16930        0.06700        1.48820
C          3.12050       -0.73250        2.29720
N          3.14660       -0.81590        0.82460
C         -1.34430       -0.55090        0.11930
N         -2.41730       -0.98000        0.14310
H          1.00540        1.87420       -0.37250
H         -0.52490        1.63500       -1.22810
H         -0.53580        2.07470        0.48710
H          0.57290       -0.54910       -0.66420
H          0.17240        0.29630        2.25130
H          0.57060       -1.33520        1.72920
H          2.40000        1.12150        1.35160
H          3.98910       -0.25820        2.74440
H          2.72570       -1.57500        2.85960
H          2.68820       -1.67590        0.52890
