19
gdb 8215	5.11297	1.17936	1.05041	1.1815	73.37	-0.254	0.0345	0.2885	1178.0327	0.165326	-365.068455	-365.059972	-365.059028	-365.102039	30.817
C          0.23010        1.41340        0.20950
C         -0.07570       -0.06110        0.13100
N         -0.60330       -0.80900        1.01220
O          0.29960       -0.54740       -1.07080
C          0.10330       -1.94130       -1.29710
C         -1.30510       -2.43750       -1.69570
C         -0.61640       -3.33580       -2.76260
C          0.64380       -2.42990       -2.65230
H          1.30150        1.58390        0.06590
H         -0.29120        1.94860       -0.59000
H         -0.07280        1.82650        1.17290
H         -0.81120       -0.27520        1.85300
H          0.49820       -2.50130       -0.44600
H         -1.91060       -2.90530       -0.91920
H         -1.87540       -1.62890       -2.16210
H         -0.42840       -4.34550       -2.38800
H         -1.09340       -3.41200       -3.74130
H          0.61720       -1.61710       -3.38360
H          1.63080       -2.89700       -2.67280
