20
gdb 12774	3.4191	1.48997	1.26906	1.2424	75.01	-0.2424	0.079	0.3214	1046.2499	0.176695	-348.974087	-348.965601	-348.964657	-349.006786	32.128
C         -0.07790        1.51670        0.00810
C          0.02410        0.01720        0.01560
C         -0.81820       -0.85180        0.91550
C          0.67860       -0.92750        1.03320
C          1.24170       -1.79940       -0.09540
C          0.61800       -0.81390       -1.13820
C         -0.31070       -1.35750       -2.20820
O          0.47480       -2.13600       -3.10300
H          0.86050        1.97840       -0.32090
H         -0.87040        1.86390       -0.66680
H         -0.30780        1.90260        1.00690
H         -1.32210       -0.31510        1.71400
H         -1.38330       -1.70040        0.53620
H          1.19120       -0.67680        1.95490
H          2.33190       -1.82200       -0.14100
H          0.87270       -2.83040       -0.12780
H          1.41380       -0.25070       -1.63710
H         -1.10620       -1.96640       -1.75140
H         -0.80120       -0.52050       -2.73310
H         -0.11300       -2.53150       -3.75310
