16
gdb 18903	3.50544	2.70066	2.19004	1.8034	66.37	-0.2417	0.0842	0.3259	700.4308	0.131374	-346.524019	-346.518101	-346.517156	-346.553625	24.53
C          0.00520        1.56760       -0.03400
C          0.03720        0.07050       -0.06720
C          0.61490       -0.88560       -1.16480
C         -0.44340       -1.88730       -0.76460
C          0.91440       -1.87380       -0.06150
C          0.56140       -0.87440        1.07220
O         -0.77700       -1.16990        1.52850
C         -1.18110       -0.89160        0.16980
H          1.01640        1.98840       -0.07100
H         -0.55460        1.97290       -0.88460
H         -0.47470        1.91930        0.88590
H          1.10350       -0.70770       -2.11180
H         -0.82100       -2.74670       -1.30080
H          1.58360       -2.72280       -0.05570
H          1.26710       -0.63190        1.86600
H         -2.24020       -0.66660        0.04970
