19
gdb 12823	3.36777	2.01125	1.5283	0.7102	70.7	-0.2399	0.0731	0.3131	891.4142	0.16745	-365.046003	-365.03865	-365.037706	-365.077185	28.952
C         -0.00740        1.51570       -0.02280
C          0.00680        0.00420        0.03540
C         -1.21600       -0.68100       -0.58490
O         -1.77300       -1.72930        0.18820
C         -0.80440       -2.66530        0.61460
C          0.14700       -2.03420        1.63550
C          0.70030       -0.71190        1.14270
N          1.34100       -0.60190       -0.17940
H          0.92700        1.91960        0.37440
H         -0.11020        1.86710       -1.05650
H         -0.84290        1.92390        0.55670
H         -2.02170        0.04830       -0.70910
H         -0.95400       -1.05480       -1.59160
H         -1.35170       -3.49910        1.06290
H         -0.24920       -3.06740       -0.25190
H         -0.40620       -1.85490        2.56510
H          0.96170       -2.73010        1.87400
H          1.19420       -0.11330        1.90690
H          1.25210       -1.48020       -0.68750
