17
gdb 15410	3.50359	1.29152	1.04338	3.8611	67.03	-0.2496	0.0045	0.2541	1140.8194	0.140639	-400.975871	-400.967213	-400.966269	-401.009862	29.685
C          0.58340        1.11580        0.12180
O          0.44080       -0.28440        0.03140
C          0.62200       -0.77030       -1.28060
C          0.39730       -2.25910       -1.27000
C          1.17920       -3.13690       -2.20990
N          1.44400       -3.14380       -0.79290
C          2.64100       -2.75580       -0.21180
O          3.73450       -3.03130       -0.64240
H          1.58800        1.44430       -0.18620
H         -0.15700        1.64040       -0.50190
H          0.42550        1.39150        1.16670
H         -0.09240       -0.29420       -1.97400
H          1.63810       -0.54290       -1.64590
H         -0.61020       -2.56260       -0.99240
H          0.71680       -4.03110       -2.61760
H          1.92560       -2.66900       -2.84760
H          2.47170       -2.21480        0.73640
