20
gdb 17446	3.28272	2.0515	1.61513	0.1491	78.74	-0.2522	0.0959	0.3481	895.5333	0.177503	-311.831876	-311.824209	-311.823265	-311.863158	30.606
C         -0.06740        1.53270       -0.04350
C          0.10320        0.03100        0.04920
C          1.39130       -0.70820       -0.20460
C          2.59270       -0.00520        0.37860
C          3.18440       -0.83670        1.48920
C          1.94450       -0.02430        1.77800
C          1.91420        1.02980        2.85270
C          0.73550       -0.72660        1.19470
H          0.81670        2.06800        0.30960
H         -0.24430        1.83490       -1.08210
H         -0.92510        1.87010        0.54940
H         -0.75130       -0.51500       -0.35110
H          1.44500       -1.53360       -0.90710
H          3.14760        0.80440       -0.08340
H          3.13800       -1.92180        1.43720
H          4.10150       -0.45110        1.92720
H          2.88020        1.53930        2.93570
H          1.14870        1.78800        2.66070
H          1.69630        0.58380        3.83100
H          0.22250       -1.56070        1.66380
