16
gdb 16128	3.93991	1.83279	1.48736	2.9503	70.76	-0.2419	-0.0179	0.224	859.258	0.13126	-346.617443	-346.610704	-346.60976	-346.648258	26.229
O         -0.11990        0.03240        0.12970
C          0.02160        1.21690       -0.06090
C          1.31300        1.92770       -0.03080
C          1.29540        3.42060        0.25110
C          1.62140        2.96980       -1.13850
C          3.06520        2.75690       -1.44800
C          3.60900        1.80470       -0.68660
C          2.60010        1.15170        0.23240
H         -0.85340        1.87110       -0.28700
H          0.32020        3.86760        0.42170
H          2.09560        3.81890        0.86590
H          0.91000        3.16920       -1.93320
H          3.58580        3.34450       -2.19510
H          4.65420        1.51770       -0.69700
H          2.90490        1.19870        1.28520
H          2.45010        0.09020        0.00160
