16
gdb 3225	5.11332	2.65369	2.29443	1.6661	63.81	-0.2027	0.0828	0.2855	647.7511	0.137174	-288.5546	-288.548456	-288.547512	-288.584003	24.783
C         -0.02070        1.53000        0.04160
C          0.02360        0.03120        0.00900
C         -0.88250       -0.87660        0.79720
C          0.61040       -0.95630        1.01280
C          1.33300       -1.68820       -0.15410
N          0.31800       -2.17130       -1.12750
C          0.75510       -0.75080       -1.13320
H          0.96050        1.96670       -0.18160
H         -0.73340        1.92630       -0.69290
H         -0.32790        1.89130        1.02830
H         -1.41930       -0.37940        1.60020
H         -1.41390       -1.69130        0.32220
H          1.08010       -0.74910        1.96610
H          2.31820       -2.13330       -0.10600
H          0.82710       -2.63880       -1.87740
H          1.18780       -0.29800       -2.01670
