22
gdb 13709	5.46427	0.74726	0.70237	1.3684	79.26	-0.2608	0.0809	0.3417	1654.3821	0.19916	-350.19174	-350.181877	-350.180933	-350.227086	35.322
C          0.07930        1.54230       -0.26750
C          0.05190        0.04820       -0.02500
C          1.32440       -0.76630       -0.00720
C          0.52230       -0.59140        1.26270
C          1.07380        0.19650        2.43410
C          1.94740       -0.66350        3.35610
C          2.50280        0.11180        4.54290
O          3.28380       -0.77980        5.32540
H          0.97210        2.01140        0.15550
H          0.07700        1.75910       -1.34160
H         -0.79480        2.03690        0.17150
H         -0.80280       -0.44480       -0.48230
H          1.34190       -1.73470       -0.49560
H          2.26110       -0.22010       -0.07830
H         -0.05120       -1.46360        1.57020
H          1.66160        1.04800        2.07070
H          0.24340        0.62460        3.01350
H          1.36860       -1.51360        3.73790
H          2.78510       -1.08700        2.78970
H          3.10880        0.95990        4.18240
H          1.67260        0.53570        5.13240
H          3.63450       -0.29210        6.07610
