15
gdb 3023	6.46314	1.60213	1.46833	2.3369	53.	-0.2578	0.0721	0.3299	830.6439	0.124578	-382.757134	-382.749909	-382.748965	-382.788458	26.288
O          0.16100        1.33410       -0.15130
C          0.07960       -0.06140        0.02680
C         -1.38480       -0.50820        0.12740
O         -2.10440       -0.00850       -0.99320
C         -1.51080       -2.01830        0.21170
C         -2.73120       -2.71210       -0.20750
O         -1.57710       -2.67210       -1.06500
H         -0.51210        1.54550       -0.81150
H          0.56310       -0.60930       -0.80110
H          0.61930       -0.30880        0.94830
H         -1.83500       -0.04540        1.01410
H         -1.93920       -0.64310       -1.70690
H         -0.85610       -2.50810        0.93300
H         -2.96190       -3.69240        0.20410
H         -3.57910       -2.12640       -0.55330
