14
gdb 18812	4.45819	2.30777	1.92207	3.7426	61.36	-0.2297	0.0148	0.2445	701.473	0.11019	-378.669558	-378.664061	-378.663117	-378.698973	22.542
N         -0.08170        1.25960        0.12390
C         -0.04020        0.00910       -0.01230
O          1.10120       -0.76130       -0.07280
C          0.71630       -2.07280       -0.45430
C         -0.34640       -2.79400        0.35120
N         -1.05540       -1.79640        1.17310
C         -1.20420       -0.94940       -0.08740
C         -0.68410       -2.11670       -0.97500
H          0.86090        1.64850        0.18750
H          1.52320       -2.63290       -0.90680
H         -0.26510       -3.83580        0.63930
H         -1.97760       -2.16740        1.39000
H         -2.17490       -0.49100       -0.24640
H         -1.01770       -2.44960       -1.94940
