20
gdb 13286	6.76294	0.82429	0.77664	1.1303	72.7	-0.2447	0.0844	0.3291	1504.0228	0.176132	-386.109613	-386.100488	-386.099544	-386.144614	31.399
C         -0.01530        1.34130        0.20230
O         -0.00190       -0.05530        0.03950
C         -1.29790       -0.61370       -0.00040
C         -1.16850       -2.12510       -0.14150
C         -2.51830       -2.81680       -0.18690
C         -2.55610       -4.35520       -0.04550
C         -3.45050       -4.07740        1.17900
O         -3.27120       -2.65280        1.04360
H          1.02380        1.67960        0.22650
H         -0.53320        1.84660       -0.62920
H         -0.50840        1.64030        1.14120
H         -1.85610       -0.37120        0.91790
H         -1.86980       -0.19600       -0.84850
H         -0.61430       -2.35780       -1.05970
H         -0.58560       -2.51350        0.70140
H         -3.10550       -2.44430       -1.04000
H         -3.01710       -4.90460       -0.86740
H         -1.58800       -4.80270        0.18910
H         -4.50230       -4.36890        1.06110
H         -3.08900       -4.44670        2.14570
