17
gdb 18228	3.90078	1.7485	1.49497	1.445	67.76	-0.2356	-0.0244	0.2112	875.7392	0.143615	-363.852963	-363.845919	-363.844975	-363.88461	26.518
O         -0.72160        1.03290       -0.43930
C          0.21130        1.02860        0.32350
C          1.44420        1.90060        0.19800
C          1.53670        2.70230       -1.11430
C          2.18870        4.03970       -0.69610
N          1.92400        4.25680        0.74030
C          0.51160        4.11670        1.11880
C          1.45440        2.97960        1.29480
H          0.20420        0.37280        1.22400
H          2.32200        1.25890        0.35040
H          2.11920        2.17860       -1.87550
H          0.53290        2.83920       -1.52250
H          3.27650        3.99730       -0.81630
H          1.82560        4.89250       -1.27760
H          0.21380        4.71080        1.97750
H         -0.24210        4.04040        0.33850
H          1.81480        2.70670        2.28210
