16
gdb 13255	7.99679	0.84104	0.80114	1.5903	62.04	-0.2572	-0.035	0.2222	1357.841	0.12784	-420.840763	-420.832281	-420.831337	-420.875752	28.006
O         -0.09730        0.06780        0.47290
C          0.04550        1.14820       -0.03280
C          1.40260        1.78680       -0.27810
O          1.19730        3.00850       -0.94600
C          2.37040        3.74710       -1.15930
C          3.26310        3.36140       -2.36540
O          3.10960        4.67770       -2.93360
C          2.13400        5.04920       -1.93770
H         -0.80930        1.77870       -0.36190
H          1.90450        1.93170        0.69380
H          2.02290        1.08770       -0.86140
H          2.92530        3.87000       -0.21920
H          4.31240        3.12120       -2.16150
H          2.82000        2.58010       -2.99760
H          1.11820        5.11440       -2.34730
H          2.39160        5.98710       -1.43470
