12
gdb 869	6.96249	2.21142	1.69608	0.7781	52.25	-0.2163	0.0262	0.2425	695.4339	0.091041	-360.557411	-360.551281	-360.550336	-360.587232	22.317
C          0.06720        1.46680        0.10280
C         -0.06800       -0.00360       -0.02030
C         -1.06960       -0.86780       -0.29290
N         -0.59410       -2.18390       -0.27190
C          0.65620       -2.03120        0.01050
O          1.59660       -2.96280        0.15700
O          1.07720       -0.77030        0.18140
H          0.78380        1.87100       -0.62140
H         -0.90230        1.93660       -0.07900
H          0.40740        1.76090        1.10230
H         -2.10360       -0.64650       -0.50500
H          1.16490       -3.81380        0.00840
