18
gdb 14862	3.06817	1.47388	1.08588	1.3059	68.81	-0.249	-0.0334	0.2155	1105.3954	0.15221	-384.931165	-384.92251	-384.921565	-384.965517	30.123
C         -0.02550        1.47530       -0.11500
C          0.02580       -0.05000        0.02050
C         -1.36600       -0.65030        0.11920
O         -2.14520       -0.47770       -1.08800
C         -2.53170       -1.86210       -1.08970
C         -1.57870       -2.20090        0.08060
C         -0.37960       -3.02740       -0.30260
O          0.11970       -3.86870        0.39970
H          0.97970        1.89570       -0.20910
H         -0.60030        1.76190       -1.00020
H         -0.50130        1.93390        0.75880
H          0.55010       -0.47890       -0.84040
H          0.58990       -0.33700        0.91740
H         -1.89510       -0.20970        0.97770
H         -3.59410       -2.00000       -0.85430
H         -2.31270       -2.34810       -2.04890
H         -2.03010       -2.62640        0.97710
H          0.02800       -2.81420       -1.31790
