16
gdb 9700	3.83537	1.57738	1.55916	1.151	71.27	-0.2437	0.0246	0.2683	895.1237	0.129269	-346.5761	-346.568366	-346.567422	-346.60785	29.825
O         -0.08730        1.40260        0.00870
C         -0.00810       -0.02600        0.01270
C          0.58460       -0.53380        1.36950
C         -0.63790       -0.81160        2.20510
C         -1.75250       -0.80720        1.47830
C         -1.48560       -0.51830        0.02410
C          0.75940       -0.49250       -1.14490
C          1.41850       -0.84720       -2.08620
H          0.81020        1.74240       -0.07830
H          1.19020       -1.43760        1.22770
H          1.24460        0.23070        1.79590
H         -0.58060       -1.01360        3.26860
H         -2.74930       -1.00790        1.85430
H         -2.12250        0.26520       -0.39760
H         -1.61230       -1.41300       -0.59660
H          1.99000       -1.16560       -2.92290
