19
gdb 8536	3.97082	1.88187	1.53358	1.8598	76.02	-0.2246	0.0919	0.3165	905.5753	0.165339	-327.83768	-327.830292	-327.829347	-327.868746	29.225
C         -0.10070        1.59710       -0.01880
C         -0.04410        0.07740       -0.01250
C          1.17350       -0.63000       -0.62960
N          2.07400       -0.25610        0.57950
C          2.50360       -1.71270        0.69080
C          1.04390       -1.89770        0.28020
C          0.24920       -3.15730        0.04930
C          0.67730       -0.64120        1.13940
H          0.86870        2.02000        0.25590
H         -0.37340        1.97450       -1.01050
H         -0.85070        1.96380        0.69070
H         -1.00640       -0.37040       -0.28530
H          1.57420       -0.58010       -1.64540
H          3.28320       -1.99390       -0.02670
H          2.79720       -2.00490        1.70570
H          0.21720       -3.77200        0.95570
H         -0.78330       -2.93310       -0.23970
H          0.69610       -3.76190       -0.74780
H          0.49100       -0.60450        2.21600
