19
gdb 1717	3.87176	2.11158	1.84366	1.3245	67.08	-0.2629	0.0738	0.3367	798.4342	0.171027	-310.908453	-310.90048	-310.899536	-310.940089	29.89
C         -0.31210        1.67250        0.02600
C          0.03140        0.18690        0.02460
C         -1.21680       -0.66170       -0.20270
O         -1.75210       -0.34660       -1.48120
C          1.20530       -0.26270       -0.90360
C          1.78810       -1.10450        0.26390
C          0.84640       -0.35150        1.24310
H          0.58690        2.28180        0.16600
H         -0.78250        1.96200       -0.91790
H         -1.01000        1.91490        0.83720
H         -0.95840       -1.73110       -0.13950
H         -1.94740       -0.45300        0.59720
H         -2.53420       -0.88690       -1.62360
H          0.92080       -0.78700       -1.81840
H          1.85250        0.57650       -1.17340
H          1.54430       -2.16700        0.18070
H          2.86120       -1.01900        0.44910
H          1.35580        0.45730        1.77470
H          0.29960       -0.95090        1.97840
