22
gdb 13888	3.67025	1.37387	1.08621	1.4481	77.58	-0.2586	0.0741	0.3327	1155.8204	0.201179	-350.226462	-350.217633	-350.216689	-350.260529	33.399
C          0.10750        1.49630       -0.08140
C         -0.02790       -0.02500        0.00960
O          0.73960       -0.53240        1.10100
C         -1.48780       -0.49700        0.08240
C         -2.32650       -0.10020       -1.16340
C         -3.28310       -1.28030       -1.39540
C         -2.41260       -2.49850       -1.05280
C         -1.62440       -2.04820        0.19420
H          1.16350        1.77920       -0.10230
H         -0.37680        1.89480       -0.97780
H         -0.35740        1.97710        0.78920
H          0.43710       -0.47900       -0.87610
H          0.38120       -0.14910        1.90960
H         -1.93040       -0.03020        0.97400
H         -2.84250        0.85610       -1.04070
H         -1.66550        0.00370       -2.03450
H         -4.13150       -1.21970       -0.70160
H         -3.69310       -1.30660       -2.40950
H         -2.98960       -3.41230       -0.88420
H         -1.72550       -2.70110       -1.88390
H         -0.64700       -2.52860        0.28020
H         -2.17950       -2.30970        1.10100
