14
gdb 21454	5.92279	1.45509	1.16811	1.265	67.34	-0.2036	0.0171	0.2207	958.8304	0.110728	-374.92573	-374.918845	-374.917901	-374.957066	25.587
N          0.29520        1.24860        0.00350
C          0.05030       -0.00410        0.00160
N         -1.21070       -0.53660        0.01290
C         -2.42330        0.14450        0.02760
N         -3.54150       -0.58100        0.03620
N         -4.52470        0.34580        0.04960
C         -4.05710        1.61460        0.04950
C         -2.68060        1.53590        0.03530
H          1.30000        1.40380       -0.00640
H          0.80930       -0.79550       -0.00910
H         -1.29690       -1.53990        0.01000
H         -5.48020        0.03610        0.05810
H         -4.72230        2.46370        0.05940
H         -1.95380        2.32620        0.03080
