15
gdb 15096	8.50975	0.75952	0.71844	1.8663	83.23	-0.2446	-0.0149	0.2297	1510.6245	0.117799	-325.441407	-325.433193	-325.432248	-325.474696	29.588
C          0.07740       -3.68600        0.26290
C          0.05340       -2.48580        0.13230
C          0.02490       -1.13330       -0.01520
C         -0.00090        0.06940       -0.14530
C         -0.01750        1.51720       -0.30880
C          1.36830        2.14610       -0.24660
C          1.52410        3.52270        0.28160
N          2.03190        2.36590        1.04180
H          0.10060       -4.74110        0.37730
H         -0.48530        1.76810       -1.27110
H         -0.65500        1.96760        0.46510
H          2.04350        1.80510       -1.02800
H          2.28950        4.18090       -0.11910
H          0.63180        4.03290        0.63710
H          1.39820        2.14120        1.80570
