14
gdb 2314	7.54833	1.41097	1.30013	5.0918	58.32	-0.2825	0.0296	0.3121	904.0786	0.112342	-324.572987	-324.565602	-324.564658	-324.605037	25.512
C          0.05750        1.52910       -0.18670
C         -0.03240        0.05200        0.09980
O          1.17900       -0.71420        0.04840
C          0.50100       -0.61960        1.29640
C          1.21660        0.11510        2.42000
C          2.16340       -0.74970        3.12500
N          2.89940       -1.44120        3.68560
H          0.91070        1.99720        0.30830
H          0.16650        1.69230       -1.26350
H         -0.85800        2.03580        0.13690
H         -0.87560       -0.44520       -0.38420
H          0.02000       -1.54460        1.61750
H          1.75700        0.98000        2.02770
H          0.48090        0.48490        3.14470
