15
gdb 18461	3.34304	1.94805	1.54209	3.5307	61.44	-0.2469	0.0058	0.2527	847.1101	0.118725	-399.773725	-399.766436	-399.765492	-399.805594	26.655
C          0.22120        0.83840        0.37490
O         -0.20520       -0.05560       -0.64310
C         -1.41890       -0.65630       -0.37270
C         -1.68590       -2.03090       -0.87050
N         -0.48990       -2.87520       -0.82490
C         -0.30440       -2.63920        0.55410
O          0.55780       -2.98080        1.31050
C         -1.57040       -1.80080        0.64330
H          1.17610        1.25510        0.04950
H         -0.49870        1.65740        0.51560
H          0.35820        0.31490        1.32950
H         -2.27620        0.02260       -0.37250
H         -2.55020       -2.33000       -1.44920
H          0.27510       -2.75140       -1.47950
H         -2.32490       -1.80900        1.41730
