17
gdb 7293	4.33725	1.11057	1.00041	3.7971	69.06	-0.2613	-0.0301	0.2312	1180.1225	0.139627	-363.907728	-363.89835	-363.897405	-363.942627	32.142
C         -0.01100        1.51470       -0.12320
C         -0.00740       -0.02230        0.00420
C          0.74910       -0.49130        1.26610
C          2.15130       -0.08510        1.25850
N          3.25930        0.24310        1.23190
C         -1.45000       -0.53890        0.05790
C         -2.17500       -0.67550       -1.26640
O         -1.97450       -0.82140        1.11080
H          1.01390        1.89370       -0.15200
H         -0.51580        1.84050       -1.03640
H         -0.52260        1.97030        0.73080
H          0.48000       -0.44040       -0.88480
H          0.25510       -0.09080        2.15640
H          0.69830       -1.58130        1.35400
H         -1.74700       -1.51770       -1.82380
H         -3.23460       -0.86460       -1.09190
H         -2.04790        0.21390       -1.89090
