17
gdb 12695	3.22767	1.97969	1.29416	3.6914	65.55	-0.2482	0.0253	0.2734	935.2053	0.143271	-401.046563	-401.038601	-401.037656	-401.078841	29.007
C         -0.02000        1.40700       -0.06030
N          0.00250       -0.03640       -0.08180
C         -1.20300       -0.85590       -0.03630
C         -0.69870       -2.25910       -0.44100
C          0.76370       -2.24690        0.01060
O          1.61420       -3.04990       -0.76460
C          1.14680       -0.76880       -0.10410
O          2.29030       -0.36270       -0.21180
H          1.01140        1.75590       -0.13780
H         -0.60000        1.80300       -0.90250
H         -0.46080        1.78620        0.87030
H         -1.64470       -0.85150        0.97100
H         -1.95830       -0.46480       -0.72680
H         -1.29310       -3.06100       -0.00040
H         -0.71680       -2.36940       -1.52930
H          0.83270       -2.51890        1.07940
H          2.45010       -2.56190       -0.81180
