18
gdb 14351	3.4231	1.97334	1.84859	1.0565	66.66	-0.2457	0.077	0.3227	828.4205	0.154395	-384.936741	-384.929445	-384.9285	-384.968832	27.661
C          0.49800        1.34040       -0.22430
C         -0.07060       -0.04500        0.05900
O          0.11440       -0.92990       -1.03660
C          1.09870       -1.88870       -0.71040
C          2.57670       -1.51600       -1.03290
C          2.85460       -1.31880        0.48880
C          1.37510       -1.69260        0.80310
O          0.52360       -0.63970        1.20400
H          1.57340        1.29370       -0.41470
H          0.00460        1.77020       -1.10080
H          0.32150        1.99490        0.63410
H         -1.15100        0.02660        0.24710
H          0.76130       -2.86610       -1.06380
H          3.14610       -2.32570       -1.49550
H          2.67060       -0.62520       -1.65680
H          3.58530       -2.01400        0.90900
H          3.11930       -0.30670        0.80040
H          1.22620       -2.53630        1.48130
