14
gdb 16920	3.79499	2.27295	2.03529	2.6419	60.69	-0.2295	-0.0296	0.1999	703.9554	0.109036	-382.549058	-382.543352	-382.542408	-382.57874	23.049
O          0.02070        0.03050        0.10630
C         -0.01560        1.22740        0.04540
C         -1.24920        2.15610        0.01320
C         -0.52670        3.53070        0.03420
O          0.59380        3.25780       -0.82780
C          1.17880        2.22270       -0.03140
C          1.20990        2.85040        1.36020
C          0.15580        3.66690        1.39780
H         -1.78770        2.00520       -0.92680
H         -1.92900        1.96760        0.84560
H         -1.09400        4.38220       -0.33770
H          2.09750        1.83410       -0.46340
H          1.89560        2.58180        2.15070
H         -0.22130        4.24600        2.22920
