12
gdb 7883	4.09719	1.86236	1.28037	3.5869	60.57	-0.2351	-0.0663	0.1687	854.589	0.084819	-414.748379	-414.741065	-414.740121	-414.780974	26.06
N          0.06100        1.32960        0.00720
C         -0.08360       -0.00410        0.00090
C         -1.13950       -0.85200        0.00300
C         -0.62720       -2.22770       -0.00740
O         -1.21460       -3.28130       -0.00950
N          0.79690       -2.12300       -0.01600
C          1.20090       -0.81650       -0.01180
O          2.32050       -0.35700       -0.01610
H          1.00060        1.69470        0.00320
H         -0.71800        1.96220        0.01560
H         -2.19500       -0.62960        0.01090
H          1.41340       -2.91910       -0.02400
