18
gdb 18913	3.87376	2.29333	2.03741	0.1422	73.91	-0.2124	0.0968	0.3092	762.9599	0.155766	-310.632434	-310.626216	-310.625272	-310.662237	26.19
C         -0.08880        1.52160        0.04060
C          0.03070        0.02900        0.00890
C         -0.03480       -0.84920       -1.22850
C          1.03700       -1.92280       -1.19980
C          1.10150       -2.13750        0.30090
C         -0.26040       -1.91550        0.93410
C          0.80620       -0.84470        1.03690
C         -1.02940       -1.05210       -0.09470
H          0.87740        2.00520       -0.15070
H         -0.79230        1.87490       -0.72080
H         -0.44880        1.87560        1.01380
H         -0.38350       -0.41400       -2.15850
H          0.73740       -2.82870       -1.73950
H          1.99040       -1.57240       -1.61240
H          1.77870       -2.85600        0.74810
H         -0.68730       -2.54100        1.70580
H          1.34930       -0.48780        1.90190
H         -2.10250       -0.96170       -0.19790
