11
gdb 5350	6.03706	1.62284	1.27902	4.0331	65.94	-0.2787	-0.0885	0.1901	851.4152	0.075094	-356.497715	-356.491833	-356.490889	-356.527901	21.312
N         -0.01530       -1.14820       -0.00310
C          0.01250        0.00800        0.00290
C         -0.00690        1.44560        0.01050
C         -1.23000        2.12750        0.03070
N         -1.28680        3.45760        0.03840
C         -0.11820        4.09930        0.02580
C          1.10080        3.41800        0.00560
N          1.16750        2.09020       -0.00210
H         -2.16870        1.58160        0.04070
H         -0.14950        5.18530        0.03180
H          2.04340        3.95810       -0.00440
