16
gdb 233	7.4644	1.70877	1.47982	0.1156	65.24	-0.2404	0.0633	0.3036	861.2875	0.140828	-234.486176	-234.478004	-234.477059	-234.519337	27.581
C         -0.00460        1.48740        0.02000
C          0.01920        0.03140       -0.01100
C          0.04380       -1.17280       -0.03010
C          0.05910       -2.63590       -0.07270
C         -1.35360       -3.21330        0.14580
C          0.67370       -3.14740       -1.39080
H          0.60220        1.87950        0.84410
H          0.38840        1.91350       -0.91000
H         -1.02380        1.86780        0.15160
H          0.69480       -2.99140        0.75070
H         -1.77570       -2.87110        1.09430
H         -2.02650       -2.89730       -0.65750
H         -1.32070       -4.30770        0.15560
H          1.68600       -2.75850       -1.52940
H          0.71950       -4.24140       -1.39070
H          0.06920       -2.82920       -2.24590
