16
gdb 5309	4.52991	1.53811	1.19804	2.4292	66.28	-0.2218	0.0251	0.2468	977.7573	0.132226	-379.960349	-379.952773	-379.951829	-379.992484	28.139
C          0.12350        1.43150        0.84050
C         -0.13960        0.28790       -0.13680
O          0.84290       -0.75050       -0.03060
C         -1.51850       -0.28610        0.00290
C         -2.69380        0.13910        0.57250
N         -3.69540       -0.78770        0.38840
C         -3.13590       -1.76860       -0.28250
N         -1.82490       -1.51400       -0.54760
H          1.14480        1.79810        0.71210
H         -0.56930        2.26070        0.66880
H         -0.00360        1.09500        1.87530
H          0.00090        0.66160       -1.16000
H          0.79880       -1.09250        0.87040
H         -2.87930        1.06320        1.09850
H         -3.62210       -2.68060       -0.59580
H         -1.15170       -2.11560       -0.99370
