17
gdb 6673	6.47767	0.81274	0.77316	3.8405	67.06	-0.2473	-0.0249	0.2224	1444.2893	0.139605	-401.044791	-401.035108	-401.034164	-401.081561	31.854
C         -0.13090        1.39930       -0.23250
C         -0.22160       -0.11770       -0.23440
O          0.28610       -0.80420       -1.10430
N         -0.91260       -0.66910        0.80800
C         -1.12140       -2.10310        0.89580
C         -2.25700       -2.60500       -0.02170
C         -2.35070       -4.11230       -0.01520
O         -3.32540       -4.74190        0.30750
H          0.91200        1.68630       -0.38450
H         -0.70370        1.78990       -1.07870
H         -0.50050        1.86060        0.68690
H         -1.38870       -0.06900        1.45980
H         -0.18440       -2.59050        0.61110
H         -1.33390       -2.35540        1.93870
H         -3.22370       -2.18550        0.27010
H         -2.01480       -2.28420       -1.04270
H         -1.41650       -4.62960       -0.33690
