14
gdb 18144	3.60256	1.95052	1.58476	1.7047	62.67	-0.2368	0.0082	0.245	813.0111	0.105671	-382.443665	-382.436526	-382.435582	-382.474876	27.23
O          0.18180        1.32700        0.00370
C          0.00190       -0.04700       -0.00180
C         -0.46220       -0.80460        1.19090
O         -1.36850        0.02440        1.93900
C         -2.34790       -0.03230        0.84720
C         -2.89310        1.25800        0.46150
C         -3.38030        2.31340        0.15540
C         -1.34430       -0.75360       -0.05720
H         -0.27120        1.66550        0.78780
H          0.75980       -0.54550       -0.59970
H          0.03680       -1.60500        1.72520
H         -3.16000       -0.70310        1.15240
H         -3.79470        3.24990       -0.12710
H         -1.60390       -1.50830       -0.78720
