18
gdb 6494	3.85115	1.34957	1.30081	3.6666	68.52	-0.2384	0.0546	0.293	1035.6588	0.153186	-381.152506	-381.143551	-381.142607	-381.18602	33.176
C          0.05470        1.47250       -0.30540
C          0.01620       -0.00780        0.02130
C          1.27370       -0.83490       -0.09770
C          0.70880       -0.50470        1.26280
N         -1.19790       -0.68690       -0.34960
C         -2.37820       -0.48490        0.32910
N         -3.47730       -1.13110       -0.23210
O         -2.45500        0.14840        1.36550
H          1.00550        1.91720        0.00340
H         -0.06420        1.64240       -1.38200
H         -0.75310        1.98910        0.22040
H          1.17650       -1.85690       -0.44820
H          2.17690       -0.33120       -0.42440
H          1.22490        0.22630        1.87490
H          0.22180       -1.29650        1.81730
H         -1.21990       -1.14330       -1.24750
H         -3.49760       -1.26840       -1.23130
H         -4.34900       -0.80100        0.15290
