20
gdb 12090	3.18504	1.63262	1.35202	2.3039	74.93	-0.2364	0.0674	0.3039	1009.6631	0.177163	-345.133654	-345.125059	-345.124115	-345.166994	32.521
C         -1.43720       -0.98660        1.87340
C         -0.54080       -0.66430        0.70230
N         -0.45800        0.74980        0.31760
C          0.76170        0.06930        0.78200
C          1.44410        0.59720        2.02350
C          1.57310        2.10480        2.08640
C          1.42940       -0.19330        3.28540
N          2.65280       -0.13350        2.46380
H         -1.35090       -0.22880        2.65430
H         -2.48170       -1.01380        1.54430
H         -1.19760       -1.96540        2.30310
H         -0.60100       -1.38820       -0.11120
H         -0.44540        0.86230       -0.69170
H          1.48000       -0.19140        0.00140
H          0.58530        2.57240        2.10900
H          2.13800        2.40090        2.97380
H          2.10480        2.48370        1.20610
H          1.49580        0.32150        4.24090
H          0.87500       -1.12510        3.31430
H          2.73720       -1.00030        1.93530
