16
gdb 16493	2.86036	2.61844	1.78468	0.7939	62.96	-0.2192	0.0693	0.2884	777.379	0.129645	-383.66465	-383.657654	-383.65671	-383.695365	27.556
C          0.02770        1.60440       -0.08340
C          0.05470        0.08660        0.00100
C          1.13200       -0.70330       -0.80300
O          2.40170       -0.11260       -0.38710
C          2.17830       -0.75160        0.86930
C          1.20490       -1.76410        0.35480
C          0.67550       -0.62750        1.21060
O          0.17320       -0.74830        2.48770
H          1.03930        2.00820        0.00740
H         -0.39150        1.94180       -1.03760
H         -0.59160        2.02890        0.71450
H         -0.92820       -0.35450       -0.19790
H          1.06120       -0.87750       -1.87430
H          2.97740       -0.80940        1.59720
H          1.12960       -2.84030        0.41240
H          0.44400        0.02300        2.99800
