18
gdb 276	6.73269	1.92812	1.63086	0.9735	61.19	-0.2458	0.0875	0.3333	814.3456	0.163926	-272.839582	-272.831387	-272.830442	-272.871875	28.558
C          0.07020        1.50740        0.00750
C         -0.11140        0.00150       -0.09830
O          0.71740       -0.47200       -1.13950
C          0.77130       -1.88630       -1.28270
C         -0.50070       -2.44850       -1.92640
C          2.01280       -2.18660       -2.11630
H          1.11390        1.75380        0.22230
H         -0.20850        1.99310       -0.93210
H         -0.55690        1.91320        0.80720
H          0.15980       -0.48690        0.85350
H         -1.16970       -0.23650       -0.29000
H          0.89280       -2.33940       -0.28320
H         -0.42090       -3.53390       -2.04540
H         -1.38820       -2.24720       -1.31980
H         -0.65190       -2.00230       -2.91480
H          2.90420       -1.77690       -1.63400
H          2.14540       -3.26540       -2.24170
H          1.92160       -1.73160       -3.10780
