18
gdb 7468	3.77051	1.39478	1.27696	1.5909	72.7	-0.2473	0.0437	0.291	1020.4339	0.151844	-347.751443	-347.742859	-347.741915	-347.784641	31.533
C         -0.06380        1.65090        0.15480
C          0.02140        0.13520        0.04320
C         -1.35460       -0.51070       -0.22730
C         -1.94420       -0.10650       -1.49850
C         -2.40560        0.23490       -2.55500
C          1.13370       -0.44800       -0.86520
O          1.63260       -1.27670        0.20600
C          0.78900       -0.61050        1.16450
H          0.92360        2.08710        0.33460
H         -0.47000        2.08790       -0.76250
H         -0.71800        1.94730        0.98310
H         -1.24220       -1.60230       -0.21190
H         -2.03860       -0.25840        0.59420
H         -2.82550        0.52900       -3.48490
H          0.80630       -1.03620       -1.72970
H          1.87990        0.28820       -1.19360
H          1.36360        0.04860        1.83020
H          0.21380       -1.31870        1.77430
