14
gdb 17510	4.86626	1.845	1.66715	4.6858	65.6	-0.2694	-0.0061	0.2634	778.3852	0.1093	-341.53753	-341.531514	-341.53057	-341.567533	23.527
N          0.02750       -1.15730       -0.00350
C          0.00360       -0.00140       -0.01830
C         -0.02090        1.43830       -0.01480
C         -1.11110        2.22410        0.75320
C         -0.91260        3.25570       -0.34000
C          0.53040        3.28130       -0.72430
C          1.28020        2.26650        0.11640
N         -0.38320        2.24180       -1.32220
H         -2.08300        1.73550        0.66230
H         -0.91110        2.48310        1.79690
H         -1.60870        4.02110       -0.66040
H          0.94940        4.06640       -1.34160
H          1.61710        2.52790        1.12360
H          2.09380        1.80950       -0.45000
