19
gdb 1857	5.1244	1.90931	1.57139	0.1979	73.05	-0.2347	0.028	0.2626	861.4228	0.172241	-273.806874	-273.799453	-273.798509	-273.838115	28.317
C         -0.07870        1.59450        0.00840
C          0.01890        0.06510        0.02640
C          0.80080       -0.53370       -1.17310
C          1.56820       -1.76700       -0.62640
C          2.94470       -1.98060       -1.26550
C          1.60190       -1.48440        0.86140
C          0.77260       -0.50380        1.21080
H          0.91850        2.04850        0.01510
H         -0.60270        1.94600       -0.88710
H         -0.62430        1.96990        0.88100
H         -1.00760       -0.33470        0.03690
H          0.15610       -0.77610       -2.02290
H          1.53030        0.20800       -1.52320
H          0.97510       -2.67920       -0.79850
H          3.58660       -1.10660       -1.10910
H          3.45300       -2.85130       -0.83690
H          2.85740       -2.14550       -2.34490
H          2.21810       -2.06050        1.54480
H          0.60490       -0.15300        2.22450
