16
gdb 19844	3.38103	2.58925	1.83603	2.4461	63.37	-0.2523	0.0826	0.3349	745.0142	0.1323	-383.702262	-383.69615	-383.695206	-383.732217	24.674
C         -0.00760        1.52510       -0.00380
C          1.29940        0.78590        0.02500
O          2.03430        0.85970        1.21280
C          2.13450       -0.34780        1.94660
C          0.77920       -0.94700        2.26840
O         -0.26870       -0.01460        2.54070
C         -0.30890       -0.73770        1.30450
C          0.00410        0.01200        0.04230
H         -0.27730        2.03370        0.91400
H         -0.31700        2.00640       -0.92440
H          1.91630        0.75950       -0.87170
H          2.73360       -1.10510        1.41220
H          2.66860       -0.08660        2.86570
H          0.79350       -1.83540        2.90030
H         -1.11570       -1.46660        1.24100
H         -0.27140       -0.51850       -0.86390
