15
gdb 3481	5.85265	2.84706	2.68836	0.2077	63.53	-0.2171	0.0878	0.3049	587.1699	0.125013	-271.272557	-271.266916	-271.265972	-271.301452	22.831
C         -0.02090        1.50180        0.03650
C          0.00600        0.01060       -0.01160
C          0.29280       -0.99090       -1.18060
C         -0.63120       -2.01250       -0.53460
C          0.84950       -1.99720       -0.18450
C          0.56620       -1.00300        0.98010
C         -0.91900       -1.01850        0.62890
H          0.95000        1.93160       -0.23840
H         -0.77410        1.91370       -0.64610
H         -0.26340        1.85090        1.04660
H          0.53810       -0.84380       -2.22440
H         -1.22320       -2.79250       -0.99430
H          1.59990       -2.76320       -0.32670
H          1.04530       -0.83600        1.93620
H         -1.77880       -0.86530        1.26840
