20
gdb 8679	2.64168	1.59213	1.28477	4.2867	74.98	-0.2591	0.0326	0.2916	1076.3656	0.175771	-345.203647	-345.193756	-345.192812	-345.237734	35.881
C          0.12470        1.55440        0.05190
C         -0.01240        0.03110        0.03460
C         -1.47440       -0.49920       -0.03930
N         -2.23370       -0.02810       -1.20950
C         -1.45580       -2.05050       -0.05660
C         -2.83310       -2.71310       -0.01450
C         -2.19420       -0.03790        1.16680
N         -2.72280        0.33260        2.12540
H          1.17790        1.84120        0.11840
H         -0.27910        2.00910       -0.85860
H         -0.39620        1.99060        0.90980
H          0.51820       -0.38450       -0.83160
H          0.46580       -0.39100        0.92610
H         -2.31790        0.98340       -1.19700
H         -1.71940       -0.27310       -2.05190
H         -0.92350       -2.34500       -0.97070
H         -0.84250       -2.39460        0.78300
H         -2.73260       -3.80030       -0.08250
H         -3.35330       -2.48130        0.91970
H         -3.45680       -2.36750       -0.84160
