15
gdb 9728	3.44947	1.72697	1.58211	2.9818	60.99	-0.2866	0.0112	0.2978	859.6673	0.118828	-399.809046	-399.80147	-399.800526	-399.84131	27.206
C         -0.06990        1.58920        0.05660
C          0.01230        0.06340       -0.01340
C          0.85470       -0.46450       -1.22580
O          2.09870       -0.78970       -0.63770
C          1.76290       -1.26560        0.63840
O          0.74140       -0.41020        1.12120
C         -1.33950       -0.53280       -0.02130
N         -2.39910       -0.99270       -0.04750
H          0.94200        1.99730       -0.00550
H         -0.67330        1.98490       -0.76500
H         -0.51890        1.89800        1.00310
H          0.38020       -1.34670       -1.67570
H          1.01290        0.29750       -1.99030
H          1.40010       -2.30700        0.59100
H          2.63210       -1.18910        1.29530
