17
gdb 10411	2.61264	1.94735	1.38494	1.2387	69.95	-0.2309	0.0365	0.2674	948.0866	0.140674	-363.784742	-363.776231	-363.775287	-363.817821	30.961
C         -0.00790        1.50090        0.10870
N         -0.12020        0.05820       -0.08830
C          0.64960       -0.47330       -1.20460
C          2.20830       -0.56290       -1.01500
O          2.12750       -1.97400       -0.74370
C          0.74470       -2.02440       -1.13550
C          0.20660        0.09230       -2.47100
C         -0.12560        0.54140       -3.53530
H          1.02550        1.86460        0.24070
H         -0.43730        2.01770       -0.75370
H         -0.58320        1.78240        0.99460
H          0.16930       -0.42730        0.75530
H          2.79320       -0.34770       -1.91700
H          2.61290        0.00280       -0.16730
H          0.10330       -2.48470       -0.37510
H          0.59980       -2.52890       -2.09730
H         -0.42930        0.93910       -4.47210
