16
gdb 13510	3.19934	1.87403	1.37896	2.2103	60.82	-0.2452	-0.0394	0.2059	912.3143	0.129018	-420.868842	-420.86079	-420.859846	-420.901893	28.856
C          0.23660        0.79630       -1.08630
C         -0.13470        0.33330        0.30090
O          0.63810        0.39430        1.23800
C         -1.51910       -0.30860        0.42840
O         -1.42040       -1.62630       -0.17450
C         -1.40690       -2.26560        1.13170
C         -1.87120       -0.94630        1.80250
O         -1.28600       -0.48700        2.97340
H          1.29050        1.07330       -1.12550
H          0.02090        0.00020       -1.80600
H         -0.38150        1.65860       -1.36370
H         -2.28350        0.30660       -0.06200
H         -2.08120       -3.12640        1.16430
H         -0.39540       -2.57070        1.42760
H         -2.95400       -0.95070        1.95510
H         -0.38330       -0.21590        2.74180
