19
gdb 1791	3.66715	2.05514	1.64751	1.7245	67.69	-0.2541	0.0902	0.3443	864.8125	0.169253	-310.917344	-310.908691	-310.907746	-310.950074	31.318
C          0.08330        1.39920       -0.46450
C         -0.05170        0.14450        0.40970
C         -1.41140       -0.52310        0.27860
C         -2.56970        0.22400        0.91150
O         -1.70420       -1.06080       -1.02700
C         -1.55850       -1.97830        0.06450
C         -0.44270       -2.98870       -0.01830
H          1.09170        1.81670       -0.38860
H         -0.10710        1.15140       -1.51260
H         -0.62070        2.18360       -0.16990
H          0.73670       -0.56130        0.13670
H          0.11090        0.40180        1.46430
H         -2.66570        1.23080        0.49310
H         -3.50990       -0.30370        0.73420
H         -2.42360        0.32330        1.99280
H         -2.50870       -2.40880        0.39290
H          0.48620       -2.54840       -0.38450
H         -0.25720       -3.43760        0.96380
H         -0.72230       -3.79490       -0.70510
