12
gdb 5190	8.28246	1.23584	1.07538	2.681	59.45	-0.2357	-0.0124	0.2233	1002.1546	0.084929	-414.676084	-414.669399	-414.668455	-414.708249	23.164
N         -0.10180        1.29120        0.00990
C         -0.00450        0.03630        0.00210
O         -1.15970       -0.69410        0.00720
C         -1.08930       -2.04430       -0.00040
C         -2.14910       -2.89120        0.00240
O         -1.63510       -4.16460       -0.00760
C         -0.30350       -3.99750       -0.01600
N          0.08960       -2.76210       -0.01210
H          0.82810        1.70620        0.00500
H          0.89460       -0.58050       -0.00820
H         -3.21710       -2.78100        0.01030
H          0.30570       -4.88710       -0.02470
