20
gdb 8933	2.63222	1.39663	0.97815	1.6748	72.08	-0.2465	-0.02	0.2265	1208.5285	0.173704	-386.149654	-386.139498	-386.138554	-386.18507	35.508
C         -0.10790        1.55500       -0.04120
C          0.03770        0.02770       -0.02460
C          0.76360       -0.45320       -1.28610
O         -0.02150       -0.09500       -2.41300
C          0.75700       -0.50160        1.24020
C          0.09960       -0.03180        2.55280
C          0.75220       -2.01920        1.24980
O          1.72370       -2.72350        1.34990
H          0.86450        2.04290        0.09830
H         -0.51040        1.87290       -1.00520
H         -0.78070        1.91280        0.74190
H         -0.96930       -0.41410       -0.05380
H          1.76330        0.01040       -1.33030
H          0.91430       -1.54320       -1.24610
H          0.45610       -0.35090       -3.20700
H          1.80700       -0.18490        1.22920
H         -0.95210       -0.33680        2.60100
H          0.61560       -0.45880        3.41790
H          0.13880        1.05570        2.64350
H         -0.27150       -2.46310        1.18010
