20
gdb 8333	5.55137	1.18985	1.18526	2.0283	74.85	-0.2412	0.0704	0.3116	1108.7034	0.177088	-348.975562	-348.967512	-348.966568	-349.008498	30.166
C         -0.96900        1.09680       -0.08460
C          0.09360        0.01990        0.06430
C          1.34130        0.05790       -0.86470
C          2.22070       -0.34060        0.34410
C          2.80410       -1.76810        0.43440
O          4.14290       -1.26190        0.60300
C          3.68100        0.10250        0.52930
C          1.06280        0.07970        1.28010
H         -0.52200        2.09670       -0.03670
H         -1.49210        1.01170       -1.04380
H         -1.71990        1.02950        0.71070
H         -0.37200       -0.97090        0.01380
H          1.35620       -0.60200       -1.73720
H          1.56010        1.07920       -1.19770
H          2.47750       -2.36140        1.29960
H          2.70770       -2.37940       -0.47360
H          4.12230        0.64180       -0.32030
H          3.89210        0.65970        1.45240
H          1.19200        1.10790        1.63750
H          0.85270       -0.56270        2.14040
