17
gdb 4082	4.05676	1.53573	1.19564	1.2591	68.17	-0.246	0.005	0.2509	995.5799	0.143373	-400.964306	-400.956888	-400.955944	-400.995967	28.335
O         -0.06260        1.38170        0.05630
N          0.06350       -0.01760       -0.00500
C         -1.06560       -0.61160       -0.02330
C         -1.06810       -2.11850       -0.04050
C         -2.09550       -2.64440       -1.05890
C         -3.42970       -1.92340       -0.86650
O         -3.27890       -0.52130       -1.01030
C         -2.42550        0.05280       -0.03170
H          0.85550        1.66670        0.00370
H         -0.05870       -2.48630       -0.23940
H         -1.35370       -2.47480        0.96080
H         -1.73900       -2.45790       -2.07820
H         -2.22920       -3.72590       -0.94590
H         -4.15970       -2.22730       -1.62210
H         -3.85020       -2.16230        0.12680
H         -2.87770       -0.04010        0.97250
H         -2.33700        1.11170       -0.27040
