15
gdb 863	6.44142	2.04316	1.57601	1.4242	64.74	-0.1766	0.0551	0.2317	779.2426	0.126563	-304.737186	-304.729942	-304.728998	-304.768244	26.483
C         -0.01030        1.49330        0.07460
C         -0.01700        0.00570       -0.04560
C         -0.03530       -0.81570       -1.14870
C         -0.01810       -2.16920       -0.69660
C          0.00000       -2.13840        0.67890
N         -0.03350       -3.14040        1.67530
N         -0.00010       -0.81750        1.06190
H          0.88760        1.86740        0.58370
H         -0.03520        1.94360       -0.92070
H         -0.87850        1.87310        0.62900
H         -0.04500       -0.47880       -2.17480
H         -0.00550       -3.05960       -1.30700
H         -0.42240       -3.99710        1.30000
H          0.89410       -3.36100        2.02840
H         -0.06990       -0.52000        2.02020
