19
gdb 13273	6.39694	0.90105	0.83849	2.8059	76.78	-0.2412	0.0242	0.2654	1406.8995	0.164764	-365.042941	-365.034152	-365.033207	-365.077291	30.859
C         -0.01980        1.22020        0.39070
O         -0.52540        0.31630       -0.58230
C         -1.22890       -0.72830       -0.09450
N         -1.67400       -1.61170       -0.86970
C         -2.43850       -2.70620       -0.33260
C         -1.96440       -4.14170       -0.68370
C         -2.50690       -4.60100        0.69570
C         -2.44230       -3.12550        1.17340
H          0.47090        2.02340       -0.16040
H         -0.82420        1.64660        1.00300
H          0.71420        0.73680        1.04750
H         -1.36320       -0.70970        0.99650
H         -3.47490       -2.58750       -0.67440
H         -2.36390       -4.60570       -1.58810
H         -0.87160       -4.17880       -0.71730
H         -3.53810       -4.95910        0.62900
H         -1.92000       -5.33550        1.25060
H         -1.47760       -2.91340        1.64630
H         -3.24150       -2.74980        1.81730
