16
gdb 8125	4.24074	1.796	1.4955	4.0064	64.51	-0.232	0.0525	0.2845	862.0659	0.132075	-379.960231	-379.953104	-379.95216	-379.991123	27.968
C         -0.01370        1.55180        0.03650
C          0.06890        0.04770        0.01800
C         -0.82370       -0.81710        0.89670
C          0.68150       -0.78620        1.11770
N          1.49510       -1.75840        0.44940
C          1.26580       -1.73780       -0.92670
O          1.60510       -2.57470       -1.73100
N          0.57420       -0.55770       -1.18690
H          0.94290        1.99580       -0.25520
H         -0.78230        1.91240       -0.65700
H         -0.27680        1.91270        1.03480
H         -1.43370       -0.30290        1.63180
H         -1.26410       -1.71410        0.47430
H          1.09320       -0.33350        2.01300
H          1.69270       -2.65820        0.85800
H          0.07820       -0.50090       -2.06230
