13
gdb 15480	2.95721	2.07594	1.47734	5.1799	57.82	-0.2893	-0.0216	0.2677	833.2778	0.097106	-398.653773	-398.646956	-398.646011	-398.685325	24.23
O         -0.01040        0.06600       -0.43150
C          0.01040        1.21440       -0.11630
O         -1.09630        1.94690        0.14260
C         -0.76470        3.29380        0.52720
C          0.65000        3.53810       -0.01540
C          1.26140        2.12450        0.04650
C          1.92240        1.84730        1.31960
N          2.43570        1.65550        2.33700
H         -1.51800        3.95540        0.09730
H         -0.80560        3.36500        1.61920
H          0.60800        3.86400       -1.05780
H          1.20300        4.27970        0.56130
H          1.95620        1.90830       -0.76750
