17
gdb 8395	4.03011	1.68669	1.46879	3.4559	69.01	-0.2373	0.0272	0.2645	896.4065	0.143159	-363.847903	-363.840231	-363.839287	-363.88143	28.373
N          0.09020        1.12610        0.50600
C         -0.09630        0.07690       -0.34620
O          0.69850       -0.21700       -1.21930
C         -1.36660       -0.70290       -0.13190
C         -2.47260       -0.93980       -1.20740
C         -2.91990       -1.74790        0.04400
C         -1.44710       -2.23330        0.16390
C         -2.51820       -0.51570        0.90590
H          0.92310        1.68370        0.40920
H         -0.57450        1.35750        1.22200
H         -3.07810       -0.07020       -1.47770
H         -2.16890       -1.51140       -2.08650
H         -3.82260       -2.34920        0.15190
H         -1.07450       -2.89180       -0.62310
H         -1.11000       -2.55260        1.15400
H         -2.27320       -0.71210        1.95430
H         -3.13850        0.37930        0.79730
