18
gdb 4840	4.85597	1.30974	1.10886	1.2903	76.94	-0.1781	0.0524	0.2305	1116.9229	0.154862	-344.01757	-344.00904	-344.008096	-344.050923	30.987
C         -0.77240        0.87490        0.14020
N          0.48570        0.16780       -0.13400
C          1.06220       -0.49220        0.96920
C          2.01720       -0.12960        1.89250
C          2.21470       -1.24540        2.75840
C          1.37090       -2.25530        2.35550
C          1.15150       -3.62830        2.89830
N          0.67620       -1.78170        1.26330
H         -0.68210        1.65420        0.91250
H         -1.13520        1.33380       -0.78450
H         -1.52620        0.15720        0.47670
H          1.15930        0.80640       -0.53830
H          2.51030        0.82960        1.94470
H          2.89440       -1.30020        3.59600
H          0.11880       -3.78290        3.23690
H          1.37080       -4.41060        2.15990
H          1.80720       -3.79510        3.75620
H          0.04540       -2.31430        0.68860
