18
gdb 18769	3.88409	2.36313	2.06351	0.1727	74.36	-0.2328	0.099	0.3318	752.973	0.155348	-310.600542	-310.594372	-310.593428	-310.630307	25.973
C         -0.01840        1.44190        0.02050
C          0.00630       -0.05440       -0.04290
C         -0.95320       -0.96510        0.73180
C          0.54360       -1.06270        0.95290
C          0.55780       -2.09300       -0.21480
C         -1.01760       -2.18580       -0.21550
C         -1.05350       -1.63400       -1.66220
C          0.28520       -0.95860       -1.27360
H          0.94490        1.87430       -0.27440
H         -0.78650        1.85840       -0.64280
H         -0.23780        1.78820        1.03670
H         -1.71540       -0.57110        1.39230
H          1.14100       -0.93600        1.84660
H          1.23020       -2.93400       -0.36450
H         -1.57530       -3.06780        0.09800
H         -0.90500       -2.42830       -2.40150
H         -1.89520       -1.00080       -1.96200
H          1.01710       -0.62300       -2.00870
