17
gdb 8903	2.87399	1.28968	1.22214	4.3244	64.51	-0.2751	0.0373	0.3125	1079.4882	0.140503	-401.00507	-400.99571	-400.994766	-401.039273	33.093
C         -0.32980        1.36440       -0.09240
C          0.13730       -0.07540        0.19540
C          0.69990       -0.67930       -1.01510
N          1.14020       -1.15850       -1.97020
C          1.15520       -0.17850        1.36730
O          2.26940        0.67710        1.21470
C          0.47880        0.03850        2.73110
O         -0.61770       -0.83190        2.94840
H          0.51040        1.99460       -0.39690
H         -1.06010        1.37320       -0.90430
H         -0.80530        1.80070        0.79010
H         -0.72890       -0.67740        0.49440
H          1.57410       -1.19180        1.35200
H          1.97400        1.58900        1.31320
H          1.24700       -0.05430        3.51060
H          0.07420        1.05580        2.79460
H         -0.27320       -1.71790        3.10080
