20
gdb 11410	4.1226	1.24406	1.00839	2.9363	75.07	-0.2343	-0.0117	0.2227	1190.5043	0.177029	-349.051485	-349.043106	-349.042162	-349.084649	31.305
C          0.01970        1.58960       -0.08450
C         -0.00370        0.05780       -0.06360
C         -1.40020       -0.54240        0.11390
C         -1.42850       -2.08850        0.03210
C         -2.77860       -2.48640        0.64310
C         -3.07910       -1.39170        1.67490
O         -3.95100       -1.42370        2.50390
C         -2.07800       -0.24960        1.46510
H          1.03540        1.96680       -0.23760
H         -0.60630        1.98310       -0.89320
H         -0.35110        2.01090        0.85560
H          0.42830       -0.32410       -0.99790
H          0.64440       -0.31020        0.74400
H         -2.04900       -0.15180       -0.68410
H         -1.28950       -2.45250       -0.98940
H         -0.60790       -2.49770        0.63560
H         -3.58060       -2.45430       -0.10650
H         -2.81330       -3.47730        1.10220
H         -1.34450       -0.30570        2.28330
H         -2.57260        0.72070        1.54720
