22
gdb 15984	3.28768	1.49418	1.17636	0.1384	82.42	-0.2597	0.09	0.3496	1125.819	0.200251	-313.052685	-313.044058	-313.043113	-313.085816	33.003
C          0.00470        1.56960       -0.10980
C          0.02410        0.05050        0.09220
C         -1.36800       -0.56790        0.07450
C         -2.15210       -0.60330       -1.27420
C         -2.60030       -2.05920       -0.95790
C         -1.52890       -2.10070        0.13920
C         -0.41550       -3.10720        0.21950
C         -1.44370       -3.01020        1.32550
H          1.01660        1.98650       -0.10160
H         -0.45690        1.83510       -1.06700
H         -0.56780        2.06680        0.68130
H          0.63510       -0.41790       -0.69020
H          0.51630       -0.18300        1.04640
H         -1.98350       -0.09720        0.85300
H         -2.93900        0.14050       -1.41720
H         -1.47380       -0.56210       -2.13230
H         -3.61740       -2.10500       -0.55480
H         -2.51480       -2.79150       -1.76580
H         -0.45650       -3.96570       -0.44420
H          0.59050       -2.75770        0.42900
H         -1.12840       -2.58770        2.27520
H         -2.17790       -3.80500        1.41600
