12
gdb 23664	4.22339	1.84228	1.28328	3.9676	59.19	-0.2452	-0.02	0.2253	844.371	0.086018	-418.87764	-418.871377	-418.870433	-418.907952	23.827
N         -0.04090        1.36220       -0.10740
C          0.02860        0.00350       -0.04390
N         -1.14640       -0.65470       -0.02380
C         -1.07630       -1.97890       -0.00110
N          0.02030       -2.74100        0.00910
C          1.15180       -2.06070       -0.00760
F          2.26620       -2.77920        0.00420
C          1.25240       -0.68430       -0.03470
H          0.76820        1.91340        0.12090
H         -0.94380        1.76990        0.07310
H         -2.02560       -2.50910        0.01400
H          2.21240       -0.18510       -0.05180
