18
gdb 6184	3.7136	1.55941	1.46759	2.1445	67.64	-0.2418	-0.0226	0.2192	944.2922	0.152074	-384.975241	-384.967127	-384.966182	-385.007455	30.861
C          0.03010        1.43340        0.23290
C         -0.06530       -0.06960       -0.06410
C         -1.51570       -0.53170       -0.12530
C          0.76500       -0.45450       -1.30220
C          2.14460       -0.76190       -0.72380
O          3.18680       -0.85410       -1.31470
C          1.94190       -0.92310        0.78540
O          0.55460       -0.81760        1.01450
H          1.07150        1.76970        0.27410
H         -0.47690        2.01650       -0.54250
H         -0.43730        1.65470        1.19630
H         -2.05000       -0.02630       -0.93550
H         -1.56460       -1.61110       -0.29230
H         -2.02500       -0.30750        0.81650
H          0.37970       -1.37250       -1.76260
H          0.82280        0.31260       -2.07680
H          2.30000       -1.89940        1.12970
H          2.52310       -0.14850        1.31120
