17
gdb 12270	3.92236	1.48757	1.17213	4.3702	66.5	-0.2522	0.0258	0.278	1029.5081	0.142337	-401.018031	-401.009605	-401.00866	-401.051224	29.629
C          0.08780        1.39530       -0.07580
N          0.00390       -0.03960        0.01260
C         -1.13620       -0.96590       -0.00410
C         -0.10260       -2.13180       -0.02800
C         -0.00910       -3.02930       -1.26150
O          1.21530       -3.73240       -1.26400
C          0.95910       -1.01610       -0.05860
O          2.16230       -0.98470       -0.18500
H          1.14580        1.66440       -0.11990
H         -0.41020        1.77210       -0.97790
H         -0.36480        1.87830        0.79810
H         -1.77400       -0.91020        0.88390
H         -1.75550       -0.87920       -0.90510
H         -0.07580       -2.73200        0.88430
H         -0.80760       -3.77900       -1.26620
H         -0.13120       -2.41440       -2.17020
H          1.91700       -3.08030       -1.12830
