14
gdb 17880	3.42606	2.13735	2.01093	0.7849	57.23	-0.2595	-0.0306	0.2289	729.849	0.107912	-419.654669	-419.648286	-419.647342	-419.685536	23.614
O          0.00300        0.00900        0.09170
C         -0.01340        1.19980        0.05130
C         -1.05530        2.32280       -0.01370
C         -1.23190        2.89320        1.40620
O         -0.01580        3.45420        1.87470
C          1.20010        2.92540        1.36960
C          0.99610        2.35000       -0.04460
O         -0.05010        3.12690       -0.69410
H         -1.98860        2.20460       -0.56770
H         -1.96210        3.70890        1.40400
H         -1.60040        2.10070        2.07680
H          1.90810        3.76010        1.34570
H          1.60950        2.14320        2.02840
H          1.91500        2.25630       -0.62650
