17
gdb 3188	5.01818	1.98964	1.85367	1.2994	64.36	-0.2445	0.0735	0.3179	767.1963	0.147883	-309.686571	-309.679431	-309.678487	-309.717453	27.676
O          0.13670        1.36870       -0.14270
C          0.07820       -0.03270       -0.04420
C          1.12580       -0.74670       -0.84500
C          1.21600       -0.72100        0.67020
C         -1.30840       -0.60580        0.03770
C         -2.41800        0.13130        0.74740
C         -2.43380        0.00330       -0.75710
H         -0.01000        1.73010        0.73810
H          0.85610       -1.67650       -1.33370
H          1.82220       -0.12450       -1.39460
H          1.97920       -0.08730        1.10860
H          1.00970       -1.63340        1.21980
H         -1.31970       -1.68750        0.13830
H         -3.12670       -0.44630        1.33020
H         -2.20520        1.11330        1.15670
H         -2.20150        0.89550       -1.32700
H         -3.16110       -0.65730       -1.21540
