15
gdb 13179	3.72283	1.50718	1.14156	4.5035	61.45	-0.2649	0.0042	0.2691	1003.8485	0.118294	-399.779134	-399.771067	-399.770122	-399.81237	28.031
O         -0.10090        1.41550       -0.06640
C          0.03180        0.01230        0.05790
C          0.59360       -0.59270       -1.16490
N          1.06990       -1.02170       -2.12620
C          0.87150       -0.36540        1.28890
C          0.23010       -0.04430        2.65260
C          0.25560       -1.57420        2.85560
O          0.84080       -1.77810        1.54540
H          0.75340        1.78190       -0.32310
H         -0.98180       -0.37800        0.19820
H          1.89830        0.00200        1.15030
H          0.85220        0.53320        3.33630
H         -0.75840        0.41390        2.59500
H          0.91640       -1.93560        3.65100
H         -0.71750       -2.06920        2.94660
