22
gdb 13392	5.52849	0.97673	0.8798	0.1431	84.42	-0.2336	0.0293	0.2628	1391.9968	0.201133	-313.092717	-313.083972	-313.083027	-313.126532	32.49
C          0.04820        1.63520       -0.04140
C          0.00880        0.10440       -0.02370
C          0.67840       -0.49650        1.21750
C          0.68910       -2.03320        1.25660
C          1.50800       -2.61300        2.44360
C          0.75800       -3.88880        2.90130
C         -0.62860       -3.67990        2.33920
C         -0.66440       -2.68780        1.45170
H          1.07970        2.00460       -0.02230
H         -0.43320        2.03840       -0.93800
H         -0.46690        2.05440        0.83020
H         -1.03420       -0.23140       -0.08210
H          0.50270       -0.28520       -0.92400
H          1.71610       -0.13800        1.26860
H          0.18130       -0.12070        2.12270
H          1.11700       -2.38350        0.30290
H          2.55230       -2.80170        2.18070
H          1.50810       -1.88140        3.25990
H          1.20920       -4.80080        2.48450
H          0.76650       -4.01580        3.98990
H         -1.47130       -4.30630        2.61190
H         -1.54390       -2.38840        0.89170
