18
gdb 9648	3.88623	1.25384	1.13191	4.8483	74.12	-0.252	0.0261	0.2781	1125.3525	0.152338	-343.973754	-343.964851	-343.963907	-344.007152	32.119
C          0.24070        1.57380        0.05240
C         -0.20380        0.12040       -0.09220
N          0.53590       -0.51280       -1.18290
C          1.76240       -1.22460       -0.88340
C          0.53640       -1.97600       -1.32310
C         -0.18580       -2.90450       -0.35890
C          0.46470       -2.41560       -2.70650
N          0.40490       -2.79870       -3.79560
H          1.30250        1.63390        0.31240
H          0.09010        2.11640       -0.88440
H         -0.32990        2.07060        0.84270
H         -0.07580       -0.40090        0.86980
H         -1.26860        0.07690       -0.34650
H          2.59150       -1.07180       -1.56800
H          2.04260       -1.36010        0.16180
H         -0.02880       -2.60400        0.67800
H         -1.26100       -2.91800       -0.56120
H          0.19010       -3.92470       -0.47610
