17
gdb 9524	2.79468	1.83621	1.5386	2.8779	63.7	-0.2431	0.0073	0.2504	914.2378	0.142064	-401.021617	-401.013236	-401.012292	-401.054369	30.417
C         -0.09500        1.59940       -0.01970
C          0.10160        0.07910        0.02330
C          0.77410       -0.49730       -1.22840
N          2.12730        0.00480       -1.37520
C          0.63860       -2.02990       -1.39090
O         -0.27850       -1.85060       -2.51700
C         -0.15410       -0.48270       -2.47300
O         -0.63340        0.31430       -3.21610
H          0.86020        2.13450        0.00030
H         -0.63860        1.90130       -0.91950
H         -0.66500        1.93380        0.85170
H          0.71400       -0.20080        0.88850
H         -0.87250       -0.40870        0.14540
H          2.53670       -0.31010       -2.25040
H          2.12180        1.01930       -1.41270
H          1.54910       -2.54360       -1.70750
H          0.15450       -2.56980       -0.57470
