8
gdb 490	54.35121	1.34851	1.31587	3.248	59.66	-0.275	-0.0922	0.1828	801.3233	0.047327	-266.777425	-266.77129	-266.770346	-266.806816	20.052
O         -0.09620       -0.03950        0.00270
C         -0.01710        1.16740        0.00780
C          1.22480        1.89710        0.00010
C          2.25570        2.53760       -0.00610
C          3.40950        3.25120       -0.01300
C          4.43620        3.88720       -0.01900
H         -0.91870        1.81160        0.01920
H          5.34020        4.44550       -0.02430
