13
gdb 13043	4.14125	1.44434	1.12716	5.8748	57.96	-0.2906	-0.0116	0.2791	978.8583	0.095833	-398.633109	-398.625842	-398.624898	-398.665563	25.068
O          0.00920        0.07440        0.27870
C          0.01540        1.22480       -0.00650
O         -1.01490        1.97950       -0.51280
C         -0.20660        3.19780       -0.50160
C          1.00250        2.40410        0.02870
C          1.56140        2.79410        1.40410
C          2.61030        1.88610        1.86490
N          3.45520        1.18360        2.22010
H         -0.11280        3.61390       -1.50590
H         -0.63140        3.93640        0.18270
H          1.81090        2.28620       -0.69610
H          1.98160        3.80530        1.35430
H          0.75890        2.81830        2.15000
