22
gdb 6370	4.59444	0.94252	0.87496	2.3377	78.93	-0.2409	-0.0068	0.2341	1443.5308	0.197058	-350.244453	-350.234024	-350.23308	-350.280625	36.819
C         -0.08120        1.59520       -0.07690
C         -0.13170        0.09600        0.20610
C          0.75410       -0.33930        1.36780
O          1.32060        0.46580        2.07320
C          0.89850       -1.84400        1.57270
C          1.52560       -2.25760        2.91120
C          0.57910       -1.97100        4.08510
C          1.94150       -3.73360        2.88250
H          0.92980        1.90750       -0.35250
H         -0.75840        1.85900       -0.89410
H         -0.36510        2.16640        0.81010
H         -1.15610       -0.22420        0.44580
H          0.14600       -0.49160       -0.67950
H         -0.08140       -2.32140        1.43100
H          1.51510       -2.20720        0.73630
H          2.42270       -1.64240        3.04750
H         -0.34730       -2.55220        3.99360
H          1.04510       -2.24310        5.03780
H          0.31740       -0.91100        4.13140
H          2.65380       -3.93530        2.07500
H          2.41360       -4.02620        3.82610
H          1.07370       -4.38730        2.73130
