14
gdb 19774	3.33303	2.71531	1.83239	2.7389	62.2	-0.249	-0.0159	0.2331	717.3899	0.109232	-378.674235	-378.668404	-378.66746	-378.704015	23.231
N         -0.10340        1.26090       -0.12710
C         -0.02640        0.00440       -0.00380
C         -1.22040       -0.89100        0.17110
O         -1.32740       -1.85550       -0.89800
C         -0.70470       -2.26210        0.31950
C          0.80820       -2.18340        0.28230
C          1.44470       -1.75570       -0.98770
N          1.18620       -0.76480        0.08730
H          0.83520        1.66260       -0.19740
H         -2.15480       -0.50840        0.56740
H         -1.20890       -3.04040        0.88310
H          1.36520       -2.73090        1.03630
H          2.49880       -1.95430       -1.15580
H          0.81650       -1.71930       -1.87000
