11
gdb 20327	5.97085	1.32906	1.2141	2.4383	57.12	-0.2857	-0.076	0.2096	933.882	0.07066	-393.487631	-393.480808	-393.479863	-393.519619	23.834
C         -0.02130       -1.21040       -0.12920
C         -0.00650       -0.01390       -0.03860
C          0.01540        1.44150        0.07360
C          1.40620        1.99850        0.06320
N          1.96010        2.63290        1.05470
O          3.19420        2.95740        0.60730
N          3.33730        2.48370       -0.69700
N          2.26700        1.91190       -1.01790
H         -0.03490       -2.26940       -0.21150
H         -0.54520        1.88760       -0.75720
H         -0.47010        1.76430        1.00000
