10
gdb 700	9.10592	4.2604	4.2604	0.	41.73	-0.2495	0.0447	0.2942	367.7712	0.072528	-305.036659	-305.032628	-305.031683	-305.063763	15.634
O         -0.10580        1.53720        0.00950
C          1.32710        1.29280       -0.00420
C          1.24710        0.01930        0.89860
O          1.99300       -0.82400       -0.02090
C          1.23140        0.02870       -0.91860
C         -0.03110        0.08550        0.00130
H          2.01550        2.13720       -0.00580
H          1.37180       -0.11610        1.97240
H          1.33750       -0.09560       -1.99570
H         -0.95040       -0.49910        0.00620
