18
gdb 13018	2.65122	2.43798	1.58566	1.7644	66.5	-0.2487	0.0812	0.3299	862.8278	0.154004	-384.943454	-384.935768	-384.934824	-384.975088	29.689
C         -0.04610        1.50080        0.03870
C          0.15270        0.01430       -0.02850
O         -0.77570       -0.80180        0.72550
C          0.62480       -0.85160        1.05640
C          1.33580       -2.06500        0.48860
C          0.85090       -2.11670       -0.97690
C          0.47990       -0.65910       -1.35920
O         -0.56980       -0.55640       -2.30460
H          0.87450        2.02780       -0.23460
H         -0.82610        1.80650       -0.66600
H         -0.34250        1.80820        1.04440
H          0.87690       -0.46410        2.04110
H          2.41860       -1.90140        0.55080
H          1.11340       -2.98290        1.04170
H          1.58980       -2.54510       -1.65720
H         -0.05290       -2.72750       -1.05150
H          1.33260       -0.14590       -1.82010
H         -1.35300       -0.93270       -1.88460
