14
gdb 11881	5.04651	1.56782	1.34463	4.4925	57.47	-0.2696	0.0061	0.2757	882.3741	0.107294	-419.697313	-419.690631	-419.689686	-419.728571	24.777
O          0.04780       -0.00180        0.18820
C         -0.03720        1.18810        0.14060
C         -1.29770        2.04840        0.08970
C         -0.78190        3.44710        0.34030
C         -1.56640        4.68040        0.32250
O         -1.15370        4.08850        1.56010
C          0.70610        3.38200        0.01980
O          1.06270        1.99620        0.11140
H         -1.75070        1.93900       -0.90160
H         -2.02330        1.72220        0.83580
H         -1.08580        5.62640        0.07360
H         -2.63440        4.63660        0.11350
H          0.93060        3.73610       -0.99320
H          1.29530        3.94950        0.74360
