17
gdb 16157	4.48926	1.62369	1.39212	2.043	68.14	-0.2321	0.0031	0.2351	910.0705	0.143902	-363.841587	-363.834425	-363.83348	-363.873135	27.722
O          0.08550        1.29700       -0.47200
C          0.05140        0.03030        0.16810
C         -1.35520       -0.50610        0.24380
C         -2.36480        0.10910        1.21780
C         -3.32550       -1.02650        1.50210
C         -2.94650       -2.16050        0.90490
C         -1.72570       -1.94600        0.07130
N         -1.87070       -0.98460       -1.05270
H         -0.29390        1.15840       -1.34800
H          0.69050       -0.69800       -0.35240
H          0.46080        0.18350        1.17250
H         -1.86420        0.44940        2.13430
H         -2.86210        0.99280        0.79910
H         -4.21840       -0.89940        2.10380
H         -3.45660       -3.11450        0.96740
H         -1.00690       -2.74220       -0.09430
H         -2.85610       -0.74810       -1.15680
