21
gdb 5954	3.94447	1.21773	1.18097	3.6955	75.45	-0.245	0.0324	0.2775	1140.3731	0.187	-366.302619	-366.292818	-366.291874	-366.336528	36.169
C          0.19490        1.52230        0.00830
C         -0.04530        0.01040        0.00250
C         -1.52270       -0.44650        0.01430
C         -2.24670        0.02630        1.28820
C         -2.27090        0.03980       -1.24040
N         -1.46790       -1.92620        0.00580
C         -2.52840       -2.77090        0.01130
O         -3.70220       -2.45440        0.02390
H          1.26900        1.73050       -0.00090
H         -0.24040        2.00770       -0.86970
H         -0.22340        1.99820        0.89960
H          0.43590       -0.42310       -0.88500
H          0.45270       -0.43250        0.87600
H         -2.33620        1.11590        1.30070
H         -3.24880       -0.40330        1.32630
H         -1.69860       -0.28530        2.18340
H         -1.74020       -0.26210       -2.14930
H         -3.27360       -0.38940       -1.26390
H         -2.36050        1.12950       -1.23950
H         -0.55450       -2.35260       -0.00530
H         -2.19870       -3.83090        0.00220
