18
gdb 14228	4.70099	1.70016	1.50174	1.1704	71.21	-0.2393	0.0811	0.3204	892.0951	0.153985	-347.751079	-347.743971	-347.743027	-347.781747	28.826
C         -0.12150        1.45860        0.01210
C          0.04380       -0.05610        0.02750
C          0.84620       -0.61310       -1.14930
C          2.15320       -0.53750       -0.37700
C          1.22880       -0.55840        0.90950
C          1.17090       -2.10990        0.79750
C          1.56520       -1.88820       -0.66040
O          2.08100       -2.81510       -1.54290
H          0.83590        1.95580       -0.17880
H         -0.82340        1.77450       -0.76750
H         -0.50600        1.82000        0.97250
H         -0.92190       -0.53750        0.23500
H          0.70560       -0.44740       -2.21130
H          3.11440       -0.10440       -0.60930
H          1.45250       -0.07970        1.86110
H          1.98360       -2.59040        1.34950
H          0.21710       -2.59900        1.03250
H          1.34660       -3.27250       -1.96710
