11
gdb 4632	6.62816	1.4075	1.16097	4.5736	64.07	-0.2196	-0.028	0.1916	927.9066	0.072142	-397.420216	-397.413559	-397.412615	-397.451013	24.694
O          0.06940       -0.00850        0.00250
C         -0.01610        1.18620        0.00980
N         -1.14200        1.99090        0.02960
C         -0.78040        3.32590        0.03090
C          0.56790        3.36320        0.01180
O          1.05290        2.05820       -0.00130
C          1.47640        4.42940        0.00390
C          2.26210        5.34210       -0.00290
H         -2.07210        1.61070        0.04030
H         -1.49360        4.13130        0.04500
H          2.95430        6.14750       -0.00890
