12
gdb 23747	3.45049	2.35167	1.40014	3.3623	59.63	-0.2318	-0.0322	0.1996	789.6051	0.085891	-418.862046	-418.855791	-418.854847	-418.892311	23.766
N         -0.01140        1.41860        0.14480
C         -0.02350        0.03800        0.04380
C         -1.17590       -0.74890        0.02380
N         -1.14880       -2.08480       -0.01160
C          0.04930       -2.65410       -0.03060
N          1.22580       -2.01000       -0.02470
C          1.16360       -0.70900        0.01100
F          2.31350       -0.02990        0.00780
H          0.84460        1.85700       -0.16040
H         -0.83700        1.88870       -0.19540
H         -2.15580       -0.27510        0.03830
H          0.08990       -3.73830       -0.05620
