15
gdb 12341	2.9302	2.30466	1.62829	2.1837	61.32	-0.2766	-0.0273	0.2493	810.8248	0.119827	-399.847998	-399.840856	-399.839911	-399.879466	26.171
C         -0.09620        1.50630        0.07220
C          0.02220       -0.02830       -0.03280
C          0.84120       -0.46900       -1.25870
N          2.27330       -0.23860       -1.10320
C          2.72950       -0.28620        0.06730
O          2.04570       -0.55170        1.23680
C          0.65990       -0.56980        1.23070
O          0.08920       -0.95200        2.20690
H          0.88660        1.98500        0.10540
H         -0.62950        1.89320       -0.80110
H         -0.65060        1.79270        0.96940
H         -0.98270       -0.45650       -0.07600
H          0.68950       -1.53810       -1.46040
H          0.49660        0.06730       -2.14860
H          3.78360       -0.14190        0.28730
