19
gdb 18647	2.71914	2.22316	1.74045	2.4588	70.7	-0.2156	0.0669	0.2824	855.916	0.166528	-365.035134	-365.027246	-365.026302	-365.067224	29.962
C          0.20750        1.63600       -0.03230
N          0.12800        0.18490        0.02370
C          1.18650       -0.71550       -0.39270
C          2.62520       -0.21470       -0.49110
C          2.96940        0.38240        0.89510
C          1.89530       -0.14120        1.88770
O          1.42230        0.84290        2.80180
C          0.74330       -0.65040        1.03870
H          1.21920        2.06110       -0.03810
H         -0.29890        1.97050       -0.94440
H         -0.32290        2.05050        0.82830
H          0.88170       -1.51600       -1.06390
H          3.27290       -1.06690       -0.72370
H          2.76200        0.51070       -1.30130
H          3.97930        0.10720        1.21360
H          2.92590        1.47480        0.88740
H          2.29370       -1.00320        2.44730
H          2.15900        1.10850        3.36120
H          0.08280       -1.38560        1.49300
