16
gdb 21305	6.9962	1.15941	1.01319	3.5653	67.56	-0.2316	0.0267	0.2583	1134.5239	0.132136	-379.92877	-379.921045	-379.920101	-379.961847	27.06
C         -0.71150        1.47130       -0.47870
O         -0.66760        0.07500       -0.66790
C         -0.68560       -0.64670        0.54740
C         -0.73500       -2.10550        0.22430
C         -0.41950       -3.24020        0.94640
C         -0.74200       -4.30970        0.08350
N         -1.21390       -3.88350       -1.08510
N         -1.20940       -2.54230       -0.96670
H         -0.70120        1.93370       -1.46810
H         -1.62450        1.78130        0.05280
H          0.15880        1.83000        0.09170
H          0.20500       -0.42240        1.15630
H         -1.56430       -0.34960        1.14720
H         -0.01720       -3.28580        1.94570
H         -0.64340       -5.36990        0.26570
H         -1.47390       -1.95870       -1.74240
