18
gdb 11067	3.2733	2.23979	1.89022	1.5764	65.87	-0.2401	0.0641	0.3042	784.779	0.15619	-384.950042	-384.943361	-384.942417	-384.980369	27.407
O         -0.03540        1.36310       -0.00810
C          0.01500       -0.04010        0.00300
C          0.70120       -0.69200        1.22970
C          0.18720       -2.16490        1.16140
C         -0.73320       -2.12150       -0.07750
C         -1.36250       -0.72690        0.01490
O          0.09640       -2.02900       -1.25090
C          0.60840       -0.68850       -1.26860
H          0.86430        1.69810        0.06830
H          1.79260       -0.61860        1.17670
H          0.37430       -0.18340        2.14130
H          0.98710       -2.89420        1.01700
H         -0.36720       -2.44380        2.06260
H         -1.39670       -2.97740       -0.20150
H         -1.91910       -0.54820        0.93820
H         -1.97880       -0.47260       -0.85030
H          0.26840       -0.16120       -2.16970
H          1.70700       -0.70570       -1.26420
