19
gdb 6121	2.89836	1.77753	1.47432	3.9189	72.85	-0.2377	0.042	0.2797	962.6767	0.163776	-365.101541	-365.092524	-365.09158	-365.134776	32.891
C          0.00670        1.40770        0.03210
N          0.01680       -0.03130        0.00700
C         -0.00550       -0.91540       -1.03990
O         -0.03980       -0.75070       -2.23330
C          0.03050       -2.11800       -0.07310
C          0.05410       -1.05700        1.07660
C          1.34360       -1.02440        1.89670
C         -1.18850       -1.04360        1.96660
H          0.90700        1.81370        0.50960
H         -0.02460        1.75250       -1.00440
H         -0.87190        1.80040        0.55880
H         -0.85840       -2.75110       -0.10720
H          0.92610       -2.73690       -0.15650
H          2.22180       -1.03310        1.24430
H          1.39200       -0.12630        2.52240
H          1.39920       -1.89270        2.56100
H         -1.19400       -1.91230        2.63280
H         -1.21600       -0.14600        2.59420
H         -2.10110       -1.06630        1.36360
