18
gdb 13679	4.78336	0.98442	0.88833	2.7489	69.26	-0.2526	-0.0285	0.2241	1301.1347	0.150663	-384.921426	-384.912392	-384.911447	-384.956231	31.394
C         -0.12730        1.43280        0.38380
C          0.04670       -0.05520        0.17550
C          1.37920       -0.59540       -0.31370
C          0.93790       -0.87120        1.08720
O          1.66390       -0.24020        2.10080
C          0.97080       -0.16950        3.32610
C          1.88230        0.49420        4.34300
O          1.55490        0.73470        5.47420
H          0.76160        1.86470        0.85150
H         -0.29040        1.94690       -0.56930
H         -0.98680        1.65000        1.02780
H         -0.83630       -0.57310       -0.19040
H          1.39990       -1.41300       -1.02530
H          2.18440        0.12360       -0.42430
H          0.62000       -1.88250        1.34460
H          0.03800        0.40900        3.24660
H          0.69970       -1.17180        3.69860
H          2.89150        0.73800        3.94370
