13
gdb 4724	6.77206	1.35128	1.13441	1.3315	71.92	-0.2323	-0.035	0.1973	999.7129	0.094967	-361.46761	-361.460404	-361.459459	-361.499049	26.233
C          0.01340        1.50410        0.00700
C          1.67330        0.01340       -0.02620
C         -0.07820       -0.83190       -1.08730
O         -0.05660       -2.11440       -0.62800
C          0.03590       -1.98420        0.72470
N          0.07270       -0.74760        1.13100
C          0.07960       -3.16270        1.49860
C          0.11660       -4.16990        2.15460
H          0.93070        1.87410        0.47600
H         -0.05100        1.92050       -1.00140
H         -0.82780        1.88730        0.59360
H         -0.14950       -0.70540       -2.15420
H          0.14970       -5.05600        2.73970
