17
gdb 10492	2.6549	1.67476	1.24257	3.3331	68.28	-0.2789	0.035	0.3139	1008.5782	0.141463	-363.861286	-363.852718	-363.851774	-363.894692	30.903
O          0.17880       -1.15800        1.62080
C          0.05130       -0.54740        0.34200
C         -1.40710       -0.58370       -0.04920
C         -2.32840        0.16660        0.90940
C         -2.07920        1.61010        0.91440
N         -1.86250        2.74540        0.90730
C         -1.74980       -0.60220       -1.51640
C         -1.94380       -1.84370       -0.68060
H          1.03810       -0.92400        1.98320
H          0.40190        0.49540        0.36580
H          0.64530       -1.08100       -0.41600
H         -3.37740       -0.00250        0.64520
H         -2.17890       -0.21520        1.92490
H         -2.62940       -0.05530       -1.83830
H         -0.93420       -0.58420       -2.23120
H         -1.25480       -2.66990       -0.81590
H         -2.95720       -2.14690       -0.44060
