20
gdb 15723	2.63285	1.94439	1.30246	1.9058	71.22	-0.2397	0.0776	0.3173	1011.1828	0.176774	-386.135802	-386.127025	-386.12608	-386.169404	31.453
C          0.29150        1.17950        0.41790
O          0.17780       -0.19530        0.13700
C          0.54040       -0.55270       -1.18690
C          2.06390       -0.68400       -1.36280
O          2.40600       -2.04210       -1.09220
C          1.22400       -2.78310       -0.80460
C          0.07200       -1.99710       -1.44180
C         -1.32220       -2.34260       -0.92840
H          1.32770        1.54200        0.34370
H         -0.33160        1.78340       -0.26080
H         -0.05470        1.32970        1.44340
H          0.10480        0.16480       -1.89810
H          2.36730       -0.43180       -2.38880
H          2.60560       -0.02160       -0.67660
H          1.34140       -3.79010       -1.21820
H          1.07490       -2.86890        0.28270
H          0.11670       -2.15580       -2.52690
H         -1.40170       -2.14290        0.14200
H         -2.08860       -1.75030       -1.43870
H         -1.54880       -3.39940       -1.10400
