17
gdb 2232	4.59327	2.69953	2.15574	0.1828	68.85	-0.223	0.0254	0.2484	683.4703	0.149586	-272.587161	-272.5808	-272.579856	-272.616798	25.428
C         -0.02690        1.55440        0.02620
C          0.04070        0.04560        0.00380
C         -0.82690       -0.78510        0.93290
C          0.67300       -0.80210        1.10150
C          1.46280       -1.92900        0.43710
C          1.15400       -1.74980       -1.03610
C          0.40650       -0.66750       -1.26130
H          0.91350        2.00230       -0.31470
H         -0.82710        1.92660       -0.62480
H         -0.22760        1.92470        1.03650
H         -1.39540       -0.25360        1.69050
H         -1.32230       -1.66180        0.52760
H          1.08210       -0.33050        1.98810
H          2.54020       -1.83910        0.63320
H          1.16730       -2.92120        0.80340
H          1.49300       -2.44820       -1.79310
H          0.06400       -0.32960       -2.23400
