14
gdb 12993	2.84012	2.71508	1.62716	4.2085	57.16	-0.2618	-0.0094	0.2524	779.9254	0.106991	-419.701608	-419.69473	-419.693785	-419.732593	25.424
C         -0.12570        1.52500        0.02240
C          0.13190        0.05130        0.01760
O         -0.69440       -0.79970        0.84720
C          0.71420       -0.79000        1.06920
C          1.39530       -1.95710        0.38950
O          1.06250       -1.84300       -1.00580
C          0.43580       -0.66550       -1.28310
O          0.19630       -0.30000       -2.39630
H          0.75410        2.07180       -0.32970
H         -0.95440        1.75870       -0.65180
H         -0.37850        1.86320        1.02950
H          1.06030       -0.41070        2.02610
H          2.48450       -1.91230        0.49780
H          1.03320       -2.92390        0.75030
