16
gdb 10145	2.79615	1.26331	0.91069	1.4739	72.27	-0.2631	0.0329	0.296	1227.8933	0.126838	-346.522478	-346.513059	-346.512114	-346.556832	33.407
O         -0.08950        1.46370       -0.07750
C          0.02270        0.05300        0.02490
C         -1.39210       -0.51180        0.02180
C         -1.42360       -2.06410        0.05850
C         -0.79650       -2.60030        1.27320
C         -0.27370       -3.02500        2.26770
C         -2.79600       -2.55950       -0.09000
C         -3.92650       -2.94030       -0.22580
H          0.79090        1.84140        0.00390
H          0.59140       -0.36520       -0.82320
H          0.54130       -0.24610        0.94690
H         -1.94550       -0.11840        0.87910
H         -1.90940       -0.17960       -0.88320
H         -0.84300       -2.42640       -0.80370
H          0.18150       -3.41010        3.14650
H         -4.92360       -3.28710       -0.34100
