18
gdb 12640	3.20312	1.89752	1.27829	3.0641	74.94	-0.2332	-0.037	0.1962	983.7296	0.153384	-347.859415	-347.851085	-347.850141	-347.892447	30.283
C         -0.14700        1.55340        0.02640
C          0.06430        0.03830       -0.02450
C          0.84810       -0.49450       -1.24420
C          1.93390       -1.35310       -0.64660
C          1.95360       -1.34910        0.69410
C          2.87930       -2.04650        1.63630
C          0.86270       -0.47000        1.18890
O          0.63960       -0.19100        2.34650
H          0.80650        2.08530       -0.06490
H         -0.80150        1.89160       -0.78260
H         -0.59690        1.83350        0.98260
H         -0.91590       -0.45260        0.02750
H          0.22050       -1.06630       -1.93840
H          1.28270        0.32250       -1.83590
H          2.63160       -1.90460       -1.27020
H          3.64480       -2.61930        1.10690
H          3.37180       -1.32290        2.29480
H          2.32350       -2.72630        2.29160
