15
gdb 4183	5.21394	1.45294	1.28386	2.0856	65.41	-0.2466	-0.0097	0.2369	936.889	0.118715	-399.711969	-399.704975	-399.704031	-399.74345	26.179
O         -0.19610        1.28920       -0.25520
N         -0.05140       -0.10460       -0.18730
C         -1.15880       -0.66740        0.05580
C         -2.57580       -0.22480        0.38850
C         -2.92850       -1.71920        0.66180
C         -3.34690       -2.51340       -0.58460
O         -1.96960       -2.76680       -0.95390
C         -1.47460       -2.13440        0.25000
H          0.70530        1.58050       -0.43150
H         -2.61830        0.42220        1.26990
H         -3.13280        0.26150       -0.41830
H         -3.38770       -1.96370        1.61700
H         -3.87610       -3.45140       -0.37500
H         -3.89250       -1.95860       -1.35790
H         -0.77950       -2.76780        0.80530
