20
gdb 13087	3.704	1.24004	1.04669	2.8208	75.79	-0.2465	-0.0187	0.2278	1173.1392	0.175959	-349.008306	-348.999526	-348.998582	-349.042406	31.755
C         -0.57910        1.38790       -0.06460
C          0.08050        0.01750       -0.06600
C          1.47210       -0.16260       -0.73390
C          1.85590       -1.15090        0.39950
C          0.67720       -0.58990        1.25070
C          1.11880        0.43570        2.30820
C          1.76910       -0.26460        3.47780
O          2.92830       -0.16320        3.78920
H          0.08550        2.15980        0.33740
H         -0.84790        1.68590       -1.08410
H         -1.49870        1.39320        0.53200
H         -0.61670       -0.71570       -0.48790
H          1.49350       -0.53420       -1.76120
H          2.06230        0.75830       -0.69100
H          1.69240       -2.19300        0.11250
H          2.85680       -1.06250        0.82900
H          0.04310       -1.34260        1.73220
H          1.82920        1.16040        1.89970
H          0.23940        0.97880        2.68130
H          1.08170       -0.93370        4.04870
