14
gdb 15743	3.75637	1.41957	1.11267	2.8092	61.56	-0.2682	-0.0357	0.2324	1022.8496	0.106906	-415.855275	-415.847463	-415.846519	-415.888802	26.69
N         -0.04790        1.40250       -0.48600
C          0.10400        0.24550       -0.00100
O         -0.97830       -0.49240        0.43700
C         -2.25900       -0.07310        0.14970
O         -3.19380       -0.67340        0.57550
C          1.36660       -0.50870        0.20120
C          1.54890       -1.33930        1.43170
N          1.39150       -1.97980        0.12970
H          0.84640        1.79710       -0.77000
H         -2.27490        0.81910       -0.48620
H          2.23310       -0.02080       -0.23580
H          2.54220       -1.40560        1.86540
H          0.72440       -1.37680        2.13650
H          0.43740       -2.32180        0.03670
