16
gdb 17505	4.81514	1.76752	1.61034	0.7528	75.08	-0.2448	0.0384	0.2832	832.0238	0.131037	-309.38432	-309.37783	-309.376886	-309.414554	26.614
C          0.02600       -1.22530        0.00450
C         -0.00170       -0.02240       -0.02280
C         -0.03620        1.40900       -0.05950
C         -1.09890        2.21910        0.75370
C         -0.93190        3.30560       -0.30220
C          0.55110        3.33110       -0.70680
C          1.26570        2.25960        0.10850
C         -0.39540        2.32940       -1.31800
H          0.05140       -2.28630        0.03120
H         -2.08200        1.74640        0.69240
H         -0.85410        2.43940        1.79880
H         -1.57290        4.15760       -0.48560
H          0.98270        4.20150       -1.18280
H          1.57850        2.48110        1.13510
H          2.09600        1.81810       -0.44750
H         -0.66920        2.09770       -2.33640
