18
gdb 15382	3.79056	1.07427	0.90581	4.7356	73.44	-0.2748	0.0166	0.2914	1295.4609	0.153787	-343.978435	-343.969728	-343.968784	-344.012399	30.95
C          0.06450        1.52490        0.10780
C         -0.04200       -0.00040        0.17510
C         -1.39530       -0.52350       -0.32490
C         -1.48970       -2.02800       -0.24390
N         -1.81410       -2.60340        1.06290
C         -2.78430       -2.75690       -0.04180
C         -4.03920       -2.05640        0.09320
N         -5.05120       -1.50230        0.16810
H          1.03620        1.87140        0.47230
H         -0.05480        1.88660       -0.91960
H         -0.71050        2.00130        0.71770
H          0.76540       -0.45240       -0.41660
H          0.10430       -0.33940        1.20770
H         -2.20540       -0.08370        0.26650
H         -1.55680       -0.21320       -1.36560
H         -0.76840       -2.56890       -0.85700
H         -1.33530       -3.48730        1.21350
H         -2.88270       -3.73160       -0.51230
