20
gdb 7283	3.99959	1.06879	0.89548	3.0346	72.24	-0.2483	-0.0168	0.2315	1306.036	0.17357	-386.155611	-386.145639	-386.144695	-386.190673	35.417
C          0.01070        1.56200        0.01160
C          0.02900        0.02710        0.02480
C          0.83470       -0.49720        1.22200
C         -1.40940       -0.52820       -0.00500
O         -2.15480       -0.00770       -1.10540
C         -1.48660       -2.06320       -0.01340
C         -2.91910       -2.53130       -0.16260
O         -3.29360       -3.34710       -0.96380
H          1.02480        1.96180       -0.08680
H         -0.59700        1.94050       -0.81250
H         -0.41110        1.95210        0.94580
H          0.52250       -0.31930       -0.89720
H          1.82140       -0.02480        1.25280
H          0.32990       -0.26220        2.16700
H          0.99040       -1.57890        1.18220
H         -1.94320       -0.15310        0.87940
H         -1.76700       -0.35460       -1.91740
H         -0.89170       -2.49120       -0.82890
H         -1.10020       -2.46590        0.93190
H         -3.63000       -2.06110        0.55530
