16
gdb 4506	3.56527	1.76299	1.19728	2.8426	69.27	-0.1833	0.0352	0.2186	992.6438	0.130486	-379.979692	-379.971214	-379.970269	-380.012918	30.166
C          0.00900        1.45350        0.00460
C          0.02740       -0.03770       -0.03140
N          0.02750       -0.78450       -1.12190
C          0.04800       -2.07720       -0.67860
O          0.05380       -3.12070       -1.54470
C          0.06100       -2.15600        0.68920
C          0.08410       -3.30820        1.63080
N          0.04740       -0.81830        1.08280
H          0.89570        1.86330        0.50280
H         -0.01100        1.82730       -1.01990
H         -0.87240        1.84080        0.52940
H          0.04060       -2.73240       -2.42730
H          0.97570       -3.31210        2.27150
H         -0.79330       -3.33170        2.29060
H          0.08810       -4.23690        1.05570
H          0.05160       -0.49170        2.03450
