20
gdb 19752	3.49436	2.14951	2.07532	0.0458	76.52	-0.2583	0.0925	0.3508	802.0954	0.181064	-311.888467	-311.882127	-311.881183	-311.918405	27.068
C         -0.13560        1.56350       -0.01720
C          0.03010        0.04440        0.00070
C          0.91670       -0.52870       -1.10580
C          2.32790       -0.62820       -0.55270
C          2.28530       -0.12510        0.88670
C          0.83120       -0.56000        1.18990
C          0.87360       -2.05700        0.79630
C          1.44220       -1.86080       -0.60750
H          0.82700        2.08270       -0.03380
H         -0.69030        1.88000       -0.90740
H         -0.69330        1.91120        0.85950
H         -0.96700       -0.41480       -0.03180
H          0.72700       -0.34410       -2.15570
H          3.19850       -0.52420       -1.18690
H          3.00910       -0.63180        1.53440
H          2.44630        0.95290        0.97770
H          0.45330       -0.33160        2.18670
H          1.52910       -2.64730        1.44590
H         -0.11950       -2.51910        0.79500
H          1.64880       -2.68420       -1.27860
