14
gdb 9336	3.52934	1.2077	0.94277	1.2593	55.81	-0.2727	-0.0918	0.1809	1164.7128	0.104596	-456.834334	-456.825696	-456.824752	-456.869093	28.619
O          0.18670        1.14830       -0.54480
C         -0.04840       -0.19540       -0.18280
C         -1.50760       -0.45220        0.14770
O         -2.24870       -0.16420       -1.06210
C         -3.56640       -0.34710       -1.00920
O         -4.19350       -0.75200       -0.06330
C         -4.25750        0.02310       -2.32710
O         -3.69310        0.46450       -3.28760
H         -0.35450        1.32970       -1.32140
H          0.27380       -0.89420       -0.97010
H          0.55450       -0.39670        0.70870
H         -1.68980       -1.48900        0.44690
H         -1.86180        0.21300        0.94050
H         -5.34880       -0.16250       -2.27790
