17
gdb 2149	3.55485	2.90776	1.8561	1.6336	64.77	-0.2501	0.012	0.2621	726.6992	0.149145	-309.731169	-309.724095	-309.72315	-309.761939	26.927
C         -0.02750        1.56620        0.00260
C          0.09410        0.04490        0.01200
C          0.88710       -0.56180       -1.17610
C          1.56300       -1.76470       -0.56380
C          1.46340       -1.78020        0.76600
C          0.77180       -0.54330        1.28950
O          1.69890        0.33490        1.93440
H          0.95540        2.04030        0.07690
H         -0.50610        1.91350       -0.91910
H         -0.62390        1.92220        0.84830
H         -0.91230       -0.39010       -0.02170
H          0.23340       -0.82670       -2.01510
H          1.62920        0.14060       -1.58340
H          2.07790       -2.51110       -1.16020
H          1.89290       -2.52400        1.42790
H          0.02730       -0.75430        2.06420
H          2.49340        0.36130        1.38970
