15
gdb 4578	5.67278	1.50587	1.19878	3.0271	71.52	-0.2241	-0.0195	0.2046	967.6925	0.12005	-362.72961	-362.72241	-362.721466	-362.761308	26.904
C         -0.04460        1.50990        0.01090
C          0.01450        0.00400        0.02400
N          0.12380       -0.60500       -1.16720
C          0.17970       -1.93090       -1.21030
C          0.13070       -2.74110       -0.07100
O          0.19680       -4.09010       -0.24360
C          0.01750       -2.11790        1.16690
C         -0.04100       -0.72860        1.20980
H          0.85460        1.92640       -0.45460
H         -0.89880        1.85650       -0.57980
H         -0.13300        1.91890        1.02060
H          0.26810       -2.40030       -2.18730
H          0.15270       -4.52350        0.61510
H         -0.02440       -2.70500        2.08100
H         -0.12930       -0.21790        2.16280
