17
gdb 16586	2.79481	2.05749	1.74284	3.6797	69.06	-0.2314	0.0169	0.2483	857.1228	0.141837	-363.857628	-363.849725	-363.848781	-363.889696	29.027
C          0.12680        1.57610       -0.19050
C          0.10180        0.06460       -0.13850
C          0.66460       -0.85920       -1.18410
C          1.32240       -0.80490        0.18570
C          2.53620       -0.22830       -0.54540
O          3.61600        0.20670       -0.24730
N          1.89870       -0.34650       -1.77950
C          2.08010        0.46800       -2.96030
H          1.05430        1.95580       -0.62500
H         -0.71200        1.95970       -0.78150
H          0.04460        1.99280        0.81850
H         -0.79860       -0.34240        0.32260
H          0.13260       -1.68600       -1.63820
H          1.32970       -1.54570        0.97220
H          3.08020        0.90650       -2.90800
H          2.01350       -0.13820       -3.86980
H          1.34110        1.27740       -3.02750
