13
gdb 3658	3.67375	3.44432	1.80484	4.1563	56.2	-0.2096	0.0069	0.2164	668.4957	0.103635	-336.819674	-336.812929	-336.811984	-336.850301	23.976
C         -0.04910        1.55760        0.10910
C         -0.00270        0.07410       -0.01630
C         -0.02840       -0.76820       -1.11080
N         -0.15360       -0.43750       -2.46580
N          0.01310       -2.06010       -0.68260
N          0.06180       -2.07820        0.62320
N          0.06760       -0.80000        1.02610
H          0.94430        2.00210        0.24820
H         -0.48000        1.98480       -0.80060
H         -0.67240        1.87390        0.95220
H          0.58780        0.16850       -2.79620
H         -0.15760       -1.28400       -3.02320
H          0.10520       -0.59690        2.01230
