17
gdb 1349	4.22727	2.27906	2.16141	1.3288	65.1	-0.2429	0.0236	0.2665	715.7792	0.148216	-309.733888	-309.72668	-309.725736	-309.764755	27.597
C          0.19140        1.47650        0.02160
C         -0.09210       -0.03170        0.02430
O         -1.50780       -0.25380       -0.02940
C          0.53280       -0.77510       -1.18570
C          1.77190       -1.53230       -0.64740
C          1.55580       -1.52770        0.84680
C          0.55830       -0.72550        1.20720
H          1.26600        1.67680       -0.03280
H         -0.29930        1.94910       -0.83510
H         -0.18550        1.94890        0.93750
H         -1.91560        0.26550        0.67190
H         -0.21700       -1.48350       -1.54610
H          0.77120       -0.09770       -2.00950
H          1.85740       -2.54490       -1.05810
H          2.70940       -1.02110       -0.90600
H          2.17560       -2.10250        1.52720
H          0.23260       -0.53490        2.22540
