16
gdb 8374	5.10853	1.28963	1.17833	2.4662	65.7	-0.2457	-0.0289	0.2168	1028.944	0.127715	-383.731785	-383.723995	-383.723051	-383.764178	28.956
C          0.11240        1.53230       -0.26910
C          0.02940        0.04840       -0.02920
O          1.27710       -0.67080        0.03680
C          0.48650       -0.58930        1.20730
C          0.97710        0.04970        2.51930
C          0.29010       -1.12020        3.25520
O          0.08190       -1.36290        4.40660
C         -0.06910       -1.82770        1.93240
H          0.88710        1.98680        0.35370
H          0.35130        1.73820       -1.31740
H         -0.84670        2.01130       -0.04340
H         -0.73930       -0.47520       -0.60130
H          2.06700        0.03860        2.62800
H          0.60790        1.04770        2.77210
H         -1.12610       -2.07150        1.79400
H          0.52770       -2.73040        1.76130
