16
gdb 10970	2.67803	2.58906	1.8635	2.4595	64.69	-0.2243	-0.0169	0.2074	783.5581	0.130446	-383.734064	-383.72706	-383.726116	-383.764985	26.946
C          0.01960        1.54550        0.08280
C         -0.02250        0.05560       -0.05820
C          0.67180       -0.78650       -1.17530
C         -0.24290       -1.93590       -0.62760
C          0.27830       -2.02220        0.81470
O          0.41420       -0.61390        1.14450
C         -1.26750       -0.79020       -0.43740
O         -2.42580       -0.60770       -0.65660
H          1.04040        1.88880        0.27570
H         -0.34680        2.02360       -0.82950
H         -0.61230        1.86250        0.91710
H          0.41780       -0.47150       -2.18920
H          1.74840       -0.92210       -1.05180
H         -0.45900       -2.85430       -1.16700
H         -0.42700       -2.50400        1.50130
H          1.25330       -2.51630        0.89710
