13
gdb 2614	11.62817	1.05724	0.98101	1.3985	63.07	-0.2612	0.0115	0.2727	1107.8038	0.097853	-307.223588	-307.215582	-307.214638	-307.256147	27.448
C         -0.03920       -1.19060       -0.00400
C          0.01060        0.00890        0.00190
C          0.03280        1.46420        0.00950
O          1.37230        1.92530       -0.00070
C          1.43420        3.34060        0.00620
C          2.82330        3.77510       -0.00470
C          3.95920        4.16350       -0.01340
H         -0.07370       -2.25200       -0.00930
H         -0.51440        1.84970       -0.86820
H         -0.49760        1.84020        0.90170
H          0.90770        3.75390       -0.87160
H          0.92460        3.74440        0.89830
H          4.96690        4.49850       -0.02120
