15
gdb 10587	2.70618	1.8319	1.29677	3.2244	69.47	-0.2488	-0.0317	0.2172	962.7286	0.115997	-362.611113	-362.602655	-362.601711	-362.643961	30.454
C         -0.12340        1.56700        0.08130
C         -0.04610        0.05950        0.13050
N          1.15190       -0.58990       -0.36750
C          0.84100       -0.72660        1.08690
C          1.80590        0.01310        1.97190
O          1.97130       -0.21770        3.13950
C          0.32780       -1.97450        1.58050
C         -0.09170       -3.03320        1.96540
H          0.85830        2.02940        0.19540
H         -0.52920        1.88080       -0.88630
H         -0.78690        1.94720        0.86420
H         -0.99380       -0.44470       -0.05240
H          0.93540       -1.46820       -0.83200
H          2.36980        0.80300        1.43430
H         -0.46010       -3.96320        2.32230
