11
gdb 2967	3.77145	2.72206	1.7771	1.3167	48.39	-0.2586	-0.1017	0.157	669.6678	0.076098	-380.372123	-380.365414	-380.364469	-380.403315	22.428
O          0.92520        2.44420       -1.66130
C          0.88580        1.55060       -0.85870
C          1.27110        1.67120        0.62550
O          1.62240        0.65560        1.18250
C          1.21980        2.98620        1.33290
C          1.54370        4.26840        0.66380
O          0.20010        3.90090        0.92600
H          0.64140        0.50110       -1.12690
H          1.37530        2.89600        2.40680
H          1.94210        5.06810        1.28640
H          1.82770        4.26880       -0.38340
