21
gdb 6529	3.17609	1.53372	1.24272	2.8201	75.52	-0.2309	0.0658	0.2967	1073.7521	0.186231	-366.240842	-366.230831	-366.229887	-366.275089	36.632
C         -0.01830        1.48580       -0.10250
C         -0.03270       -0.02490        0.06590
C         -1.22470       -0.65390       -0.63930
N          1.29010       -0.67420       -0.04210
C          0.60620       -0.65590        1.27130
C          1.28870        0.17510        2.34640
C          0.07340       -1.96310        1.82510
O          1.18980       -2.74390        2.24500
H          0.87890        1.93820        0.31840
H         -0.05040        1.74200       -1.16750
H         -0.89430        1.93950        0.37520
H         -1.23240       -0.34270       -1.69050
H         -1.21030       -1.74540       -0.62450
H         -2.17020       -0.32140       -0.19560
H          1.20080       -1.59630       -0.46510
H          1.88810        0.97650        1.91560
H          0.55370        0.61370        3.03160
H          1.95450       -0.46840        2.92750
H         -0.59620       -1.74770        2.67370
H         -0.51180       -2.50950        1.07570
H          0.85500       -3.51800        2.70680
