22
gdb 6860	3.14653	1.68305	1.50651	1.2864	77.43	-0.2425	0.0756	0.318	984.4191	0.20137	-350.224315	-350.216074	-350.21513	-350.256085	32.914
C          0.02360        1.53280        0.01040
C         -0.05410       -0.00190        0.00260
C         -1.53910       -0.41500        0.00940
C          0.66620       -0.54840       -1.25410
C          0.90370       -2.05920       -1.18830
O          1.61730       -2.42890       -0.02050
C          0.91790       -2.07180        1.15970
C          0.68120       -0.56180        1.24460
H          1.06330        1.87760        0.00600
H         -0.47370        1.95680       -0.86950
H         -0.46300        1.94730        0.90080
H         -2.05500       -0.01310       -0.86970
H         -1.67960       -1.49940        0.00440
H         -2.04440       -0.02260        0.89880
H          0.09540       -0.30330       -2.15880
H          1.64210       -0.05560       -1.34610
H         -0.05290       -2.60720       -1.23430
H          1.51190       -2.39130       -2.03520
H         -0.03810       -2.62030        1.21140
H          1.53630       -2.41290        1.99560
H          1.65830       -0.07000        1.33010
H          0.12140       -0.32650        2.15870
