14
gdb 8054	3.59052	1.88932	1.5424	4.9857	62.71	-0.2714	0.0016	0.273	824.1169	0.107675	-378.64973	-378.642856	-378.641912	-378.680703	25.975
O         -0.08720        1.36810        0.05360
C          0.04850        0.00010        0.03520
C          0.54160       -0.96020       -1.07900
N          0.06530       -1.92360        0.02080
C          0.77090       -0.97080        1.00500
C         -1.15060       -0.97100        0.13620
C         -1.92850       -1.05650        1.36280
N         -2.56540       -1.11120        2.32570
H          0.78590        1.77460        0.08870
H         -0.03620       -1.02720       -2.00370
H          1.61570       -1.02660       -1.26220
H          1.85960       -1.03450        0.94860
H          0.41000       -1.05070        2.03140
H         -1.81090       -1.02920       -0.73220
