17
gdb 11246	5.20643	1.3079	1.14877	3.9338	74.06	-0.2115	-0.003	0.2085	1053.1127	0.143042	-363.902587	-363.894794	-363.89385	-363.935419	28.29
C          0.01330        1.56820        0.00460
C         -0.01490        0.03120        0.00260
C          0.76500       -0.59630       -1.19570
N          1.91490       -1.27470       -0.57260
C          2.94400       -1.86920       -1.23970
O          3.87050       -2.45000       -0.71280
C          1.77110       -1.25510        0.82170
C          0.69330       -0.56980        1.20170
H          1.04400        1.93750        0.02020
H         -0.48390        1.97280       -0.88370
H         -0.49870        1.96660        0.88630
H         -1.06270       -0.29000       -0.03560
H          0.15020       -1.32130       -1.73930
H          1.10380        0.16350       -1.90660
H          2.83930       -1.75950       -2.33690
H          2.51620       -1.77340        1.40630
H          0.38100       -0.41080        2.22400
