18
gdb 11915	4.49352	1.58577	1.35489	0.9993	68.37	-0.2454	0.0896	0.335	962.1671	0.153398	-384.931974	-384.924238	-384.923293	-384.964373	29.025
C          0.02550        1.53030        0.04670
C          0.20160        0.03380        0.15150
O          0.56650       -0.51300       -1.10680
C          1.41150       -1.63210       -0.85780
C          1.65840       -1.57660        0.64910
C          1.38880       -2.73150        1.57630
C          2.80080       -2.20170        1.36670
O          1.26170       -0.28340        1.03150
H          0.96040        1.98740       -0.28580
H         -0.76280        1.76010       -0.67420
H         -0.25430        1.94420        1.01890
H         -0.72450       -0.45690        0.50570
H          0.92440       -2.56790       -1.16130
H          2.33290       -1.50950       -1.43970
H          0.91040       -2.50420        2.52230
H          1.12910       -3.69410        1.14720
H          3.50200       -2.80080        0.79490
H          3.24540       -1.63030        2.17380
