16
gdb 21016	6.08006	1.26244	1.08454	1.3965	68.51	-0.2303	0.0253	0.2556	1078.7881	0.131266	-379.935272	-379.927087	-379.926142	-379.969173	28.365
C         -0.20510        1.35640        0.09430
N          0.02720       -0.06680       -0.01040
C          0.35580       -0.78140       -1.11570
C          0.40570       -2.10580       -0.73850
C          0.08090       -2.09190        0.63540
C          0.02040       -3.25260        1.57730
O         -0.53850       -4.36310        0.88510
N         -0.15480       -0.85400        1.06870
H          0.16380        1.84420       -0.80980
H         -1.27220        1.57190        0.20890
H          0.32780        1.75240        0.96160
H          0.52160       -0.29790       -2.06590
H          0.63250       -2.96050       -1.35300
H          1.03420       -3.49400        1.93760
H         -0.57730       -2.96520        2.45410
H         -0.45460       -5.13450        1.45320
