13
gdb 840	6.86805	2.13225	1.64364	1.8932	55.58	-0.198	0.0562	0.2542	722.6311	0.103147	-340.686134	-340.679625	-340.678681	-340.716208	24.147
C          0.00820        1.47560        0.07070
C          0.01300       -0.01380       -0.02510
C         -0.13950       -0.79820       -1.13180
N         -0.05580       -2.11340       -0.67490
C          0.13940       -2.03490        0.66260
O          0.26000       -3.16080        1.38800
N          0.18880       -0.80860        1.10490
H          0.95370        1.84880        0.47960
H         -0.14200        1.93060       -0.91220
H         -0.78870        1.82670        0.73570
H         -0.29480       -0.56860       -2.17230
H         -0.12460       -2.95800       -1.21530
H          0.39020       -2.87610        2.30120
