16
gdb 10807	5.13883	1.50498	1.18246	3.5039	68.89	-0.2042	0.0175	0.2218	987.1215	0.132313	-379.984371	-379.976516	-379.975572	-380.017127	28.509
C          0.01930        1.49700        0.05860
C         -0.00460       -0.00010        0.00110
C         -0.05400       -0.69050       -1.14030
N         -0.09390       -2.08130       -1.17880
C          0.04780       -2.87700       -0.05300
O          0.08810       -4.09220       -0.11630
N          0.15470       -2.17610        1.11880
C          0.00170       -0.73970        1.31440
H          0.92480        1.86840        0.55750
H         -0.01580        1.93530       -0.94240
H         -0.83360        1.89240        0.62740
H         -0.07450       -0.20430       -2.10920
H         -0.09060       -2.57920       -2.05200
H          0.21500       -2.77040        1.92960
H          0.82530       -0.36970        1.94550
H         -0.92520       -0.51690        1.87320
