18
gdb 10279	2.5237	1.66602	1.08407	2.1028	73.98	-0.2432	-0.0176	0.2255	1120.1355	0.149719	-347.797945	-347.78818	-347.787236	-347.833171	34.326
C          0.14820        1.61330       -0.36630
C          0.15240        0.08470       -0.39150
C         -1.16760       -0.53620        0.11070
C         -2.30840       -0.19430       -0.73430
C         -3.22870        0.08400       -1.45680
C         -1.04430       -2.07160        0.30950
C         -2.31860       -2.82430        0.63000
O          0.02920       -2.61720        0.24060
H          1.10160        2.00730       -0.73050
H         -0.64840        2.02080       -0.99610
H         -0.00180        1.99470        0.65030
H          0.34250       -0.27930       -1.40650
H          0.95860       -0.31120        0.23150
H         -1.37220       -0.14390        1.12170
H         -4.04620        0.33450       -2.08680
H         -2.88800       -2.31610        1.41520
H         -2.96120       -2.85020       -0.25560
H         -2.07380       -3.84160        0.93700
