22
gdb 14271	2.70629	2.39452	1.69658	0.032	80.37	-0.2785	0.0783	0.3568	888.8628	0.204909	-313.078706	-313.071879	-313.070935	-313.109091	29.001
C         -0.05540        1.51520        0.05170
C          1.50060        1.54940        0.02410
C          1.47620        0.08630        0.55940
C          0.01000       -0.04160        0.05250
C         -0.13450       -0.69640       -1.32990
C          0.99460       -0.42120       -2.34140
C          1.34910        1.05980       -2.54140
C          2.11240        1.71670       -1.37540
H         -0.44720        1.89640        0.99900
H         -0.59670        2.00430       -0.76370
H          1.96730        2.27370        0.69870
H          2.22020       -0.61420        0.16840
H          1.52540        0.06250        1.65180
H         -0.68620       -0.52650        0.74370
H         -0.21450       -1.78330       -1.19900
H         -1.09120       -0.37330       -1.76370
H          1.89870       -0.96890       -2.04540
H          0.69300       -0.84930       -3.30510
H          1.96410        1.16090       -3.44390
H          0.42980        1.62350       -2.74650
H          2.20700        2.78830       -1.59340
H          3.13780        1.32190       -1.35040
