14
gdb 1256	9.18145	1.20891	1.07625	2.7619	61.	-0.2419	0.008	0.2498	1050.0042	0.113425	-357.941534	-357.933674	-357.932729	-357.973624	27.42
C         -0.58950        1.73080        0.15620
N         -0.88750        0.37340        0.56530
C         -0.25320       -0.55870       -0.00910
N         -0.48630       -1.88330        0.32350
C          0.22450       -2.93640       -0.23940
N         -0.14690       -4.17430        0.24830
O          1.11200       -2.77750       -1.05210
H          0.17600        1.80060       -0.63260
H         -1.50350        2.21600       -0.20610
H         -0.24660        2.30980        1.02170
H          0.50580       -0.44580       -0.78860
H         -1.14740       -2.03990        1.06980
H         -1.08580       -4.30980        0.58950
H          0.22760       -4.94230       -0.28660
