18
gdb 16370	2.62981	2.05933	1.38447	2.665	67.48	-0.2467	0.0634	0.3101	941.9372	0.152592	-384.907342	-384.899223	-384.898279	-384.939566	30.747
C         -0.79280        1.26690       -0.04850
C          0.01900       -0.01930       -0.05780
C          1.37940       -0.06420       -0.82130
C          1.97860       -0.91750        0.33830
O          3.29810       -0.71250        0.76940
C          0.79990       -0.44140        1.19480
C          0.87200        0.20160        2.50960
O          0.27740       -1.09340        2.33270
H         -0.17770        2.12270        0.25060
H         -1.20230        1.48120       -1.04120
H         -1.63490        1.19640        0.64860
H         -0.61150       -0.85810       -0.37500
H          1.39050       -0.49610       -1.82310
H          1.84670        0.92660       -0.85640
H          1.89360       -1.98860        0.12970
H          3.41290        0.22940        0.93540
H          1.81620        0.20360        3.05310
H          0.18010        1.00220        2.76660
