13
gdb 10575	2.67007	1.9606	1.31178	4.2483	65.81	-0.2866	-0.0265	0.2602	922.3413	0.09246	-361.414248	-361.406175	-361.405231	-361.446579	28.849
C         -0.07220        1.53050       -0.07950
C         -0.03520        0.03470        0.05740
O          1.21110       -0.62300       -0.13920
C          0.66210       -0.65240        1.18890
C          1.35690        0.08590        2.21200
C          1.92360        0.68810        3.08260
C          0.15880       -1.95250        1.60620
N         -0.25850       -2.97690        1.93940
H          0.77090        1.99430        0.43530
H         -0.03260        1.80320       -1.13870
H         -1.00490        1.92300        0.33720
H         -0.88460       -0.50790       -0.35990
H          2.43160        1.21780        3.85130
