14
gdb 7705	3.68214	1.95469	1.3797	3.4489	60.55	-0.2764	-0.0007	0.2757	853.8581	0.109112	-415.880618	-415.873966	-415.873021	-415.91175	24.896
N         -0.14420        0.95730       -0.85710
C          0.00070        0.02330       -0.02410
C         -1.12820       -0.49370        0.83600
C         -1.09120       -1.99880        0.95730
N         -2.12720       -2.71500        0.92510
O          0.17270       -2.52520        1.08170
C          1.21150       -1.57710        1.20680
O          1.19690       -0.62840        0.16110
H          0.74050        1.16190       -1.32590
H         -1.02830       -0.05960        1.84160
H         -2.08530       -0.17250        0.43290
H         -1.88590       -3.70190        1.03470
H          1.14980       -1.07130        2.18050
H          2.15010       -2.12390        1.12440
