17
gdb 12383	3.01143	2.17827	1.3456	1.7583	65.26	-0.2646	0.0126	0.2772	907.0988	0.143706	-401.014404	-401.006931	-401.005987	-401.046273	27.886
C         -0.00760        1.56330       -0.04290
C          0.08380        0.03930        0.01840
C          0.74810       -0.55680       -1.23010
O          0.88080       -1.96550       -1.08940
C          1.70190       -2.26240       -0.01380
O          1.20550       -1.76860        1.23300
C          0.78090       -0.46420        1.27100
N          0.87530        0.23370        2.32090
H          0.98800        2.01460       -0.09500
H         -0.57480        1.87580       -0.92580
H         -0.49750        1.95460        0.84920
H         -0.92910       -0.38580        0.05930
H          0.13860       -0.38240       -2.11960
H          1.73850       -0.10010       -1.39500
H          1.74670       -3.34750        0.08950
H          2.71320       -1.84780       -0.16680
H          1.34140       -0.30310        3.05550
