17
gdb 2340	5.26614	1.62664	1.40844	1.7566	61.15	-0.2277	0.0739	0.3016	906.1539	0.146713	-346.823312	-346.815373	-346.814428	-346.855689	28.659
C         -0.32480        1.44990       -0.03110
C         -0.31680       -0.04770       -0.27980
O         -1.35610       -0.63880        0.50140
C         -1.43800       -2.02460        0.32560
C         -2.73100       -2.65950        0.76470
C         -2.43250       -2.48750       -0.71060
O         -3.10530       -1.51360       -1.44890
H          0.47650        1.93210       -0.59880
H         -1.27750        1.89070       -0.33930
H         -0.17660        1.66380        1.03100
H         -0.47290       -0.27440       -1.34420
H          0.65100       -0.48450        0.01190
H         -0.49860       -2.55680        0.47490
H         -2.69420       -3.64910        1.20680
H         -3.47430       -1.99320        1.19030
H         -2.22220       -3.36470       -1.31330
H         -2.96090       -0.68020       -0.98070
