18
gdb 12558	3.28918	1.82691	1.25349	1.9191	69.38	-0.2356	0.0127	0.2483	966.9728	0.154757	-384.932457	-384.924744	-384.9238	-384.964526	29.351
O         -0.31930        1.49670       -0.33600
C         -0.02630        0.13810       -0.02630
C         -1.39350       -0.54600        0.10710
O         -1.31750       -1.83190        0.68140
C         -0.92410       -2.86800       -0.19840
C          0.58460       -2.93230       -0.46100
C          1.15860       -1.77250       -1.23980
C          0.88720       -0.47960       -1.06370
H          0.50920        1.98470       -0.35910
H          0.45790        0.06510        0.96350
H         -2.00590        0.06180        0.77960
H         -1.88490       -0.57600       -0.87720
H         -1.24250       -3.79870        0.28360
H         -1.46370       -2.77860       -1.15460
H          1.09670       -3.02370        0.50790
H          0.78800       -3.86510       -1.00020
H          1.87930       -2.03270       -2.01190
H          1.38530        0.24590       -1.70530
