17
gdb 17985	3.94502	1.69283	1.44947	4.1561	71.5	-0.2889	0.0278	0.3167	899.2023	0.14414	-326.717738	-326.710739	-326.709795	-326.749411	26.629
N          0.08940       -1.15930        0.16520
C          0.03570       -0.00780        0.06730
C         -0.00530        1.44210       -0.02610
C         -0.37790        2.25450        1.26380
C          0.87820        3.14940        1.06720
C          2.11100        2.72550        1.90100
C          2.48890        1.68100        0.80500
C          1.34790        2.21480       -0.10520
H         -0.65660        1.71850       -0.85980
H         -1.33940        2.76520        1.19050
H         -0.36840        1.66330        2.18220
H          0.68770        4.21510        0.93850
H          2.85250        3.52320        1.99180
H          1.90220        2.33790        2.90230
H          3.48710        1.81210        0.38300
H          2.38210        0.63240        1.09420
H          1.63400        2.57110       -1.09470
