18
gdb 13495	3.11973	1.69253	1.4256	2.8654	68.79	-0.204	0.0319	0.2358	956.6012	0.15364	-381.122159	-381.113555	-381.112611	-381.155354	30.932
C          0.03050        1.48890       -0.07590
N          0.04590        0.03420        0.04060
C          0.84650       -0.40470        1.17800
C         -1.27470       -0.53830       -0.00990
C         -1.42600       -2.08860       -0.15980
N         -2.25670       -2.05990        1.04480
C         -2.12730       -0.71510        1.30100
O         -2.51640       -0.00970        2.19430
H          1.05900        1.85450       -0.15990
H         -0.50690        1.78070       -0.98380
H         -0.44390        1.99180        0.78330
H          0.45240       -0.05370        2.14670
H          0.90120       -1.49670        1.20750
H          1.86690       -0.02650        1.06510
H         -1.85560       -0.00860       -0.77000
H         -1.94610       -2.42070       -1.06380
H         -0.49170       -2.64670       -0.05110
H         -2.75050       -2.78910        1.53700
