19
gdb 8431	3.62402	1.72869	1.71644	1.3644	70.33	-0.2367	0.0797	0.3164	874.5749	0.166645	-365.053298	-365.045811	-365.044867	-365.084329	30.392
C          0.57130        1.29270        0.01590
C         -0.09380       -0.08480       -0.01850
O         -1.51650        0.06280       -0.02220
C          0.39550       -0.93860       -1.23440
C          1.44070       -1.88550       -0.68250
N          2.48780       -1.20860        0.11760
C          1.35780       -1.88380        0.79850
C          0.25940       -0.93730        1.23330
H          1.65700        1.18790        0.06720
H          0.32490        1.86320       -0.88940
H          0.22140        1.85940        0.88470
H         -1.74020        0.72970       -0.68000
H         -0.45560       -1.51620       -1.61010
H          0.77340       -0.31450       -2.05160
H          1.71080       -2.77620       -1.24100
H          3.30780       -1.80830        0.16370
H          1.56450       -2.77330        1.38490
H          0.54320       -0.31060        2.08420
H         -0.62870       -1.51050        1.51830
