19
gdb 14751	10.32543	0.597	0.57445	4.6937	74.24	-0.2812	0.0116	0.2928	1901.0009	0.163616	-365.068972	-365.059219	-365.058275	-365.104743	32.83
C         -0.05290        1.54890        0.01100
C         -0.03370        0.01810        0.00260
C         -1.43950       -0.59200        0.01270
C         -1.41700       -2.11240        0.00430
O         -2.75740       -2.58310        0.01450
C         -2.83300       -3.98370        0.00770
C         -4.24080       -4.39450        0.01880
N         -5.33900       -4.75000        0.02720
H          0.96140        1.95910        0.00360
H         -0.57900        1.94240       -0.86540
H         -0.56210        1.93290        0.90160
H          0.51200       -0.33630       -0.88190
H          0.52880       -0.34570        0.87260
H         -1.99080       -0.25530        0.89890
H         -2.00760       -0.24590       -0.85910
H         -0.89300       -2.48950       -0.89040
H         -0.87610       -2.49910        0.88470
H         -2.35040       -4.41490       -0.88550
H         -2.33380       -4.42430        0.88710
