17
gdb 4851	6.24659	1.27129	1.07054	1.069	73.07	-0.1729	0.0613	0.2343	1109.6852	0.142286	-363.894901	-363.886585	-363.885641	-363.927618	30.171
C          0.62410        0.77780       -0.22580
O         -0.69610        0.97560        0.24730
C         -1.54990       -0.03860       -0.02050
C         -1.42700       -1.24710       -0.66230
C         -2.72140       -1.86020       -0.60380
C         -3.57700       -1.01950        0.06060
C         -5.02230       -1.14660        0.40570
N         -2.83950        0.10140        0.41480
H          1.19310        1.66410        0.05860
H          1.07710       -0.11240        0.22910
H          0.63930        0.66480       -1.31740
H         -0.53650       -1.64870       -1.11630
H         -2.98810       -2.82360       -1.01220
H         -5.19900       -1.11730        1.48920
H         -5.63230       -0.35140       -0.04300
H         -5.40540       -2.10110        0.03690
H         -3.17720        0.90560        0.91450
