20
gdb 10653	2.68635	1.60427	1.26665	3.0526	76.74	-0.2454	-0.0133	0.2321	1071.1985	0.175087	-349.017036	-349.00782	-349.006876	-349.050642	33.673
C          0.30170        1.51210        0.31940
C         -0.20110        0.13030       -0.11960
C          0.59190       -0.45380       -1.27550
C          2.00090       -1.00490       -1.05630
C          0.90370       -1.95650       -1.39230
C          0.37830       -2.97020       -0.40030
C          0.37520        0.19080       -2.59530
O         -0.40960        1.08120       -2.81670
H          1.34780        1.46920        0.64170
H          0.22550        2.23010       -0.50050
H         -0.29150        1.89080        1.15740
H         -0.17430       -0.55480        0.73300
H         -1.24930        0.20980       -0.42820
H          2.76370       -0.78740       -1.79740
H          2.35630       -0.98090       -0.03100
H          0.90880       -2.32100       -2.41770
H          0.46510       -2.62190        0.63180
H         -0.67340       -3.20950       -0.58930
H          0.95140       -3.90040       -0.47960
H          1.00700       -0.23000       -3.41510
