17
gdb 2111	4.50033	2.32372	1.67193	0.3203	60.03	-0.2421	0.0714	0.3136	756.407	0.150255	-346.860694	-346.854023	-346.853079	-346.890929	25.811
O         -0.05360        1.43410       -0.01360
C          0.01150        0.01540        0.00350
C         -1.41710       -0.52080        0.05160
C         -1.41450       -2.04930       -0.09580
C         -0.60420       -2.46280       -1.32620
O          0.71460       -1.93760       -1.28780
C          0.71990       -0.52310       -1.24840
H          0.84400        1.77730        0.04300
H          0.55920       -0.34270        0.89040
H         -1.90320       -0.20800        0.98090
H         -1.97760       -0.06230       -0.77380
H         -0.96760       -2.51100        0.79310
H         -2.43800       -2.43180       -0.17970
H         -0.49510       -3.54950       -1.38560
H         -1.11620       -2.12210       -2.24320
H          0.22500       -0.09830       -2.13880
H          1.77190       -0.21600       -1.26600
