13
gdb 3237	5.34188	2.7421	2.3785	0.9706	52.35	-0.2323	0.0608	0.2932	584.469	0.100856	-344.360007	-344.354299	-344.353354	-344.389026	22.833
O         -0.21360        1.41720       -0.01450
C         -0.08580        0.04390        0.00040
C         -0.25120       -0.85010       -1.19600
C         -1.19920       -0.97960       -0.01490
C         -0.50940       -1.70450        1.18410
O          0.83110       -2.07930        0.82070
C          0.56850       -0.72490        1.21000
H          0.54410        1.78610       -0.48310
H         -0.69920       -0.34770       -2.04790
H          0.45990       -1.63340       -1.42690
H         -2.26590       -0.82420       -0.09910
H         -0.99000       -2.26860        1.97380
H          1.14490       -0.29440        2.02080
