16
gdb 16302	3.63025	1.6998	1.41486	3.8559	66.38	-0.2562	-0.0415	0.2146	914.8716	0.128582	-383.711134	-383.703447	-383.702503	-383.743204	28.1
C         -0.08250        1.58990       -0.15460
C          0.01640        0.07520       -0.04820
C          1.14140       -0.66410       -0.86510
C          1.69660       -1.20140        0.45630
O          2.00890       -0.09950        1.28850
C          0.63830       -0.50020        1.24460
C         -0.02910       -0.95530        2.48480
O          0.53530       -1.23670        3.51150
H          0.87590        2.05200        0.09770
H         -0.35200        1.89280       -1.17150
H         -0.84340        1.98710        0.52570
H         -0.95240       -0.39860       -0.23820
H          0.74840       -1.44150       -1.52350
H          1.83550       -0.02880       -1.42100
H          2.18730       -2.14320        0.67560
H         -1.13500       -1.04180        2.38070
