13
gdb 1238	6.97497	1.09311	1.00852	3.0147	61.63	-0.2706	-0.0659	0.2047	1107.6284	0.098897	-344.426799	-344.41858	-344.417636	-344.4602	27.125
C         -0.19080        1.57860       -0.13280
C          0.05150        0.07520        0.07900
O         -1.15330       -0.63080        0.33900
C          0.78650       -0.49890       -1.05270
C          1.33960       -0.96940       -2.01900
C          2.03840       -1.52050       -3.15150
O          1.51410       -2.16210       -4.03270
H          0.75510        2.11890       -0.22940
H         -0.77710        1.74880       -1.04120
H         -0.74360        1.97210        0.72350
H          0.65230       -0.05930        0.98670
H         -1.66910       -0.64680       -0.47540
H          3.12660       -1.30680       -3.15870
