12
gdb 21826	5.97405	1.45882	1.1725	4.2847	58.01	-0.2402	-0.022	0.2182	918.9683	0.08516	-414.669791	-414.663297	-414.662353	-414.700942	23.301
O         -0.22930        0.01360        0.00010
C         -0.07520        1.21440        0.00800
N          1.14110        1.83960        0.00130
C          2.36700        1.17270       -0.01510
C          2.63550       -0.16490       -0.02840
O          3.96810       -0.35120       -0.04200
N          4.61090        0.87220       -0.03790
C          3.65790        1.77070       -0.02180
H         -0.90830        1.94080        0.02120
H          1.15510        2.84730        0.00870
H          2.01070       -1.03910       -0.02980
H          3.91730        2.82030       -0.01560
