16
gdb 10661	3.03698	1.6192	1.29762	4.1042	62.37	-0.2569	-0.0319	0.225	962.1	0.128491	-420.861518	-420.853046	-420.852102	-420.894393	30.667
O          0.10340        1.35630       -0.32990
C          0.06530        0.03080        0.15870
C         -1.34280       -0.54580        0.14090
C         -1.89850       -1.12880       -1.16780
C         -1.55710       -2.04000       -0.03900
O         -0.40090       -2.81830       -0.07310
C         -2.32330        0.17070        0.98630
O         -2.09150        1.21100        1.56180
H         -0.42230        1.87750        0.29020
H          0.71780       -0.57150       -0.47610
H          0.45690       -0.03100        1.18490
H         -2.94290       -0.96170       -1.40980
H         -1.21510       -1.07700       -2.00800
H         -2.38650       -2.48020        0.51680
H         -0.52190       -3.50520       -0.73710
H         -3.32880       -0.30430        1.05940
