12
gdb 194	8.80085	3.53327	2.54719	1.5102	51.62	-0.185	0.0556	0.2406	495.5949	0.099063	-265.441614	-265.436072	-265.435128	-265.470365	20.507
N          0.13700        1.40950        0.13340
C         -0.02110        0.00790        0.03980
C         -1.12080       -0.82120       -0.01280
C         -0.64120       -2.16340       -0.03820
C          0.73130       -2.11390       -0.01030
N          1.09680       -0.78890        0.04260
H          0.27750        1.84050       -0.77660
H         -0.68880        1.83190        0.54050
H         -2.15050       -0.49800       -0.04420
H         -1.23940       -3.06060       -0.08510
H          1.47330       -2.89540       -0.02540
H          2.03000       -0.43180        0.15240
