10
gdb 1010	9.64623	2.07877	1.71022	1.4875	58.76	-0.2403	-0.039	0.2013	664.2358	0.067428	-322.169697	-322.16418	-322.163236	-322.198917	20.134
C          0.09690       -1.15220       -0.00490
C          0.00460        0.04670        0.00280
C         -0.09820        1.45310        0.01170
N         -1.17370        2.18830        0.03030
C         -0.70440        3.48800        0.03100
C          0.65190        3.47240        0.01260
O          1.05990        2.17580        0.00010
H          0.17190       -2.21170       -0.01160
H         -1.37290        4.33380        0.04460
H          1.42450        4.22180        0.00620
