19
gdb 14774	6.12373	0.75917	0.71063	4.0731	71.13	-0.2477	0.0353	0.283	1593.734	0.16423	-402.222052	-402.212415	-402.211471	-402.258204	32.573
C          0.13740        1.37540        0.21480
C          0.15390       -0.13490        0.05440
O          0.63200       -0.44770       -1.24070
C          0.69780       -1.83550       -1.50140
C          1.28740       -2.01410       -2.89220
N          2.60050       -1.40280       -2.97990
C          3.69820       -2.05370       -3.44230
O          3.71460       -3.19070       -3.86680
H          1.14400        1.78660        0.09540
H         -0.51210        1.83450       -0.53580
H         -0.23200        1.64840        1.20760
H          0.79910       -0.60050        0.81810
H         -0.85810       -0.55040        0.19170
H          1.33110       -2.33820       -0.75230
H         -0.30500       -2.29070       -1.45580
H          1.40550       -3.07290       -3.13140
H          0.60840       -1.56880       -3.63070
H          2.69380       -0.46860       -2.61370
H          4.60310       -1.41570       -3.39090
