11
gdb 161	7.8609	7.51415	4.27374	1.3482	38.2	-0.2572	0.0865	0.3437	333.797	0.092697	-268.273739	-268.269015	-268.268071	-268.302293	15.172
C          0.00780        1.39500       -0.04600
C          1.46940        1.87500        0.11830
O          2.22080        0.67030        0.25430
C          1.33350       -0.39740        0.00330
O          0.05300        0.03960        0.37580
H         -0.70610        1.92980        0.58370
H         -0.31720        1.46720       -1.09460
H          1.81060        2.45100       -0.75080
H          1.61580        2.47950        1.01960
H          1.35610       -0.67340       -1.06820
H          1.61300       -1.25640        0.61990
