18
gdb 19299	3.49519	1.7917	1.45256	2.2051	66.89	-0.2414	0.0603	0.3017	905.1164	0.154586	-384.899676	-384.892053	-384.891109	-384.931306	29.678
O         -0.06910        1.36800        0.29800
C          0.02630        0.02100       -0.18530
C         -1.35800       -0.58800       -0.04640
C         -1.52570       -2.11110       -0.10880
C         -0.84320       -2.79220        1.04680
C         -2.16420       -2.12590        1.28850
C         -1.97990       -0.61320        1.40050
O         -1.15090       -0.19550        2.46010
H          0.80420        1.76880        0.25210
H          0.35070        0.00520       -1.23650
H          0.76100       -0.54440        0.40150
H         -2.03920       -0.07810       -0.73340
H         -1.83490       -2.66250       -0.98850
H         -0.87540       -3.87660        1.01700
H          0.05470       -2.38540        1.49980
H         -3.03220       -2.67360        1.63320
H         -2.94380       -0.08720        1.41920
H         -0.78780        0.65810        2.18640
