20
gdb 15011	4.03327	1.3553	1.08711	2.5846	71.11	-0.2407	0.0736	0.3143	1110.1891	0.17873	-386.145735	-386.137667	-386.136723	-386.178098	30.636
O         -0.05660        1.44130        0.04040
C          0.01710        0.02310       -0.01400
C         -1.40170       -0.53270        0.01080
C         -1.41810       -2.06090       -0.15060
C         -2.84750       -2.60060       -0.00480
C         -3.47940       -2.07610        1.28660
O         -3.45240       -0.66140        1.34700
C         -2.13360       -0.14540        1.30430
H          0.83840        1.79050        0.07330
H          0.52760       -0.31450       -0.93070
H          0.58640       -0.37780        0.84190
H         -1.95150       -0.08190       -0.82620
H         -0.99020       -2.35150       -1.11710
H         -0.78040       -2.51230        0.62390
H         -3.45720       -2.27130       -0.85510
H         -2.85370       -3.69670       -0.00320
H         -4.53190       -2.36580        1.36100
H         -2.95000       -2.50090        2.15870
H         -1.55510       -0.51160        2.17320
H         -2.21830        0.93930        1.38880
