14
gdb 4346	3.88501	1.95966	1.31314	2.2668	66.28	-0.2515	-0.0364	0.2151	885.167	0.109186	-378.800093	-378.793245	-378.792301	-378.83168	25.171
C         -0.03170        1.50740       -0.00000
C          0.00540        0.00500       -0.02180
C         -0.12100       -0.72730       -1.20460
C         -0.07090       -2.11010       -1.09580
N          0.08950       -2.73540        0.07040
C          0.19930       -1.93160        1.13400
O          0.36180       -2.52910        2.32360
N          0.16700       -0.60460        1.15840
H          0.89640        1.89830        0.42870
H         -0.16550        1.92560       -0.99990
H         -0.84750        1.85230        0.64290
H         -0.25200       -0.24050       -2.16250
H         -0.16220       -2.74590       -1.97370
H          0.36510       -3.47960        2.14610
