10
gdb 23812	3.43706	2.36139	1.39973	1.5011	54.96	-0.2721	-0.1023	0.1698	761.3418	0.059034	-454.686929	-454.680665	-454.679721	-454.71763	22.631
F          0.05050        0.07030        0.18780
C         -0.00200        1.37240        0.05460
C         -1.16560        2.02730       -0.07210
N         -1.18380        3.41320       -0.21190
N         -0.18060        4.11440       -0.22940
O          1.13220        3.45130       -0.09390
C          1.26830        2.09350        0.04910
N          2.38220        1.50500        0.16640
H         -2.12860        1.53660       -0.07360
H          3.15310        2.17380        0.13990
