15
gdb 2210	4.49993	2.30686	1.82287	2.9727	52.36	-0.2465	0.0533	0.2998	704.5716	0.124777	-382.768883	-382.761817	-382.760873	-382.799769	26.684
O          0.55900        0.84210       -0.80970
C          0.10450       -0.24610       -0.06550
C          0.11860       -0.14850        1.49530
C         -1.30610       -0.75900        1.50370
O         -2.31600       -0.12020        2.26680
C         -1.44430       -0.42840       -0.00870
O         -2.06400        0.82810       -0.19870
H         -0.17070        1.47930       -0.78830
H          0.61760       -1.14430       -0.42110
H          0.90440       -0.67640        2.03930
H          0.10030        0.90030        1.80650
H         -1.30340       -1.83910        1.69250
H         -1.94680        0.12950        3.11920
H         -1.90190       -1.18120       -0.65940
H         -2.52750        1.02020        0.63070
