16
gdb 17769	5.53192	1.31169	1.27004	4.6154	69.93	-0.2407	0.027	0.2676	980.3335	0.131523	-342.712395	-342.705551	-342.704607	-342.744031	26.019
N         -1.05010        2.20570       -2.56060
C         -0.60400        1.89230       -1.54230
C         -0.05630        1.51240       -0.23600
N          1.27290        2.10300       -0.06200
C          1.85290        2.14180        1.34680
C          2.80610        3.23510        0.79870
C          1.37270        3.57760        0.31590
C          0.87200        3.27760        1.75790
H         -0.81150        1.76630        0.52430
H          0.05850        0.42210       -0.21420
H          2.10770        1.22550        1.88180
H          3.25220        3.90930        1.53040
H          3.49910        2.90990        0.02340
H          1.05780        4.36130       -0.37350
H         -0.17980        3.02480        1.89360
H          1.20320        3.95600        2.54800
