16
gdb 14892	4.83557	1.52049	1.20549	1.4397	72.4	-0.2479	0.0162	0.2641	975.3394	0.13043	-346.56917	-346.561847	-346.560902	-346.600592	28.027
C          0.02180       -1.19530       -0.04390
C          0.03500        0.00510       -0.00790
C          0.00370        1.46240        0.05810
C         -0.69620        1.97690        1.33080
C         -0.48280        3.46180        1.45870
C          0.45960        4.09250        0.76280
C          1.39970        3.35540       -0.15010
O          1.34250        1.94850        0.00310
H          0.02080       -2.25650       -0.08470
H         -0.55390        1.84270       -0.81560
H         -1.76530        1.73950        1.27750
H         -0.30080        1.44320        2.20400
H         -1.13510        4.00970        2.13310
H          0.58740        5.16970        0.82740
H          1.20540        3.63890       -1.20140
H          2.43850        3.63380        0.06310
