17
gdb 13965	5.06403	1.24855	1.13658	2.0859	68.79	-0.2422	-0.0274	0.2148	1058.4352	0.141576	-363.823933	-363.816259	-363.815315	-363.856935	27.933
O         -0.59770        0.53800        0.56340
C          0.23790        0.84600       -0.24560
C          1.23860        1.97350       -0.07280
C          1.17300        2.95340       -1.21580
C          1.88010        2.75980       -2.50170
N          2.34490        3.84040       -1.61090
C          1.36220        4.96550       -1.81680
C          0.16900        4.10380       -1.33040
H          0.32880        0.30240       -1.21450
H          1.05830        2.46010        0.89050
H          2.24370        1.53020       -0.05300
H          2.58710        1.93860       -2.57390
H          1.39310        3.02040       -3.43990
H          1.60600        5.79960       -1.15670
H          1.32880        5.32630       -2.85000
H         -0.67550        3.95390       -2.00910
H         -0.21550        4.42750       -0.36100
