23
gdb 11567	5.21422	0.94841	0.85505	0.9643	82.82	-0.2292	0.0869	0.3161	1431.4156	0.210974	-330.30276	-330.293078	-330.292134	-330.337489	35.46
C          0.02320        1.58020       -0.01110
C         -0.03960        0.04970        0.02140
C         -1.46250       -0.53910       -0.02550
C         -2.17670       -0.23630       -1.34940
C         -1.40260       -2.04700        0.26420
N         -2.72810       -2.65020        0.38180
C         -3.23710       -3.37560       -0.77820
C         -2.76400       -4.10760        0.42670
H          1.05550        1.93020        0.08850
H         -0.37060        1.98830       -0.94670
H         -0.55570        2.01620        0.81100
H          0.54560       -0.35760       -0.81520
H          0.45580       -0.30240        0.93580
H         -2.04710       -0.08590        0.78730
H         -3.19500       -0.63240       -1.34550
H         -2.24330        0.83990       -1.53210
H         -1.64100       -0.68440       -2.19590
H         -0.79010       -2.55100       -0.50900
H         -0.89030       -2.20120        1.22210
H         -4.29940       -3.26720       -0.97930
H         -2.60810       -3.42260       -1.66590
H         -1.81990       -4.64440        0.34170
H         -3.47240       -4.54340        1.12580
