16
gdb 14615	14.72932	0.5883	0.5754	1.8046	67.48	-0.2588	-0.0373	0.2215	1779.1673	0.128944	-379.928944	-379.91982	-379.918876	-379.964292	30.062
O         -0.24490        0.03750        0.26080
C         -0.01240        1.16150       -0.09610
C          1.38350        1.75490       -0.20450
N          1.43790        2.74780       -1.26760
C          2.65770        3.54320       -1.28140
C          2.53840        4.64960       -2.34520
C          3.72200        5.50320       -2.39040
N          4.66620        6.16870       -2.41010
H         -0.81970        1.87770       -0.36980
H          1.57580        2.26740        0.75040
H          2.11530        0.93480       -0.27910
H          1.32450        2.28710       -2.16620
H          2.77530        4.00650       -0.29570
H          3.57230        2.95510       -1.46650
H          2.39230        4.20560       -3.33760
H          1.65440        5.26080       -2.13690
