20
gdb 10849	4.47939	1.36175	1.0985	1.266	77.49	-0.2306	0.0311	0.2617	1110.8757	0.177836	-349.031285	-349.023064	-349.02212	-349.063445	31.788
C         -0.01990        1.53160        0.05810
C          0.01440        0.02990       -0.02920
C         -0.02750       -0.61920       -1.19600
C         -0.02080       -2.12050       -1.33130
C         -0.35660       -2.82120       -0.00930
O         -0.04530       -4.20810       -0.04260
C          0.44140       -2.19500        1.12820
C          0.08740       -0.71090        1.28860
H          0.88550        1.92160        0.54120
H         -0.10600        1.99440       -0.92860
H         -0.86620        1.87290        0.66900
H         -0.07270       -0.04610       -2.12010
H         -0.73240       -2.42760       -2.11120
H          0.96470       -2.47560       -1.66720
H         -1.43100       -2.67860        0.19970
H         -0.51520       -4.60000       -0.78580
H          0.25250       -2.74470        2.05550
H          1.50870       -2.30580        0.90070
H          0.82130       -0.22180        1.94260
H         -0.87590       -0.60440        1.81060
