19
gdb 18267	4.29635	1.56333	1.30766	1.873	70.92	-0.2299	0.0811	0.311	985.8062	0.166924	-365.030945	-365.023368	-365.022424	-365.062873	28.763
C          0.06900        1.31870        0.12480
O         -0.15620       -0.05400       -0.10080
C          0.56090       -0.57690       -1.20050
C          2.07570       -0.78700       -0.94490
C          2.41130       -2.05600       -1.75620
N          1.17390       -2.85230       -1.90800
C          0.46350       -3.07580       -0.64190
C          0.05290       -1.96800       -1.54090
H          1.11090        1.53070        0.40780
H         -0.17490        1.92180       -0.76440
H         -0.58440        1.62330        0.94610
H          0.41350        0.08130       -2.07340
H          2.68410        0.06800       -1.24810
H          2.22950       -0.93390        0.12840
H          2.74740       -1.79270       -2.76510
H          3.19720       -2.66420       -1.29710
H         -0.12630       -3.98690       -0.61270
H          0.95310       -2.82590        0.29540
H         -0.85310       -2.04940       -2.13340
