18
gdb 14167	3.32399	2.26918	1.86902	1.5786	66.46	-0.2404	0.0799	0.3203	791.3143	0.155014	-384.919861	-384.912971	-384.912027	-384.950319	28.347
C         -0.14670        1.57490       -0.00610
C         -0.00140        0.06310        0.02950
O         -1.26060       -0.45920        0.36450
C          0.78670       -0.59840       -1.18500
C          2.09410       -0.24300       -0.41260
C          1.19830       -0.56920        0.79660
O          0.91700       -1.98010        0.63660
C          0.65730       -2.07050       -0.79810
H          0.75010        2.08930       -0.35360
H         -0.97070        1.83530       -0.67760
H         -0.40220        1.94940        0.98980
H         -1.09290       -1.32110        0.76950
H          0.61160       -0.32340       -2.22440
H          2.95590       -0.89690       -0.56020
H          2.39030        0.80130       -0.48490
H          1.44420       -0.36580        1.83830
H         -0.34320       -2.48080       -0.96770
H          1.40130       -2.72100       -1.26940
