16
gdb 20711	6.38095	1.59386	1.30687	2.5828	73.18	-0.2258	0.0385	0.2643	935.5063	0.132473	-342.778226	-342.771079	-342.770135	-342.810281	25.891
C         -0.15960        1.49860        0.01710
C          0.05320        0.01610        0.05030
N          0.09070       -0.67980       -1.10380
N          0.29190       -1.92810       -0.66240
C          0.47510       -3.34250       -1.00840
C          0.59140       -3.57380        0.55520
C          0.38250       -2.06730        0.66630
C          0.23180       -0.80550        1.20670
H          0.68030        2.03570        0.47180
H         -0.26240        1.83430       -1.01690
H         -1.06350        1.78750        0.56480
H         -0.39150       -3.80110       -1.49210
H          1.38000       -3.54850       -1.58630
H         -0.19790       -4.19890        0.97890
H          1.56340       -3.94760        0.88490
H          0.24140       -0.48770        2.23610
