16
gdb 16990	3.91019	2.32324	2.20752	2.3781	64.78	-0.2315	0.0518	0.2833	704.2617	0.131906	-383.617363	-383.611625	-383.610681	-383.646784	24.087
C          0.08890        1.54750       -0.20420
O          1.53310        1.47150        0.12240
C          1.20380        0.33420        0.98080
C          1.33360       -1.24000        0.97890
C         -0.28090       -1.14750        1.13820
C         -0.01870        0.05060        0.17760
O          0.45790       -0.63650       -1.00830
C          1.44020       -1.55400       -0.50180
H         -0.42340        2.24470        0.46670
H         -0.07880        1.79410       -1.25360
H          1.02330        0.69440        1.99800
H          1.95550       -1.79020        1.68470
H         -0.85560       -1.99380        0.75670
H         -0.58970       -0.87370        2.14630
H          2.42720       -1.32550       -0.92050
H          1.17140       -2.58650       -0.75500
