17
gdb 1251	7.00894	1.07185	0.98682	3.3221	62.23	-0.2472	-0.0172	0.23	1156.0424	0.145583	-346.867789	-346.859151	-346.858207	-346.90144	29.855
C          0.04390        1.57170        0.12330
C          0.00740        0.04640        0.03990
O          0.65490       -0.55110        1.16110
C         -1.42200       -0.49200       -0.12870
C         -1.46080       -2.02190       -0.27040
C         -2.86410       -2.56690       -0.17880
O         -3.39800       -3.26200       -1.00430
H          1.07150        1.91940        0.25810
H         -0.36240        2.02920       -0.78410
H         -0.55380        1.92920        0.97170
H          0.60600       -0.27880       -0.82030
H          0.25360       -0.18690        1.95850
H         -2.01720       -0.18390        0.74410
H         -1.88700       -0.02060       -1.00290
H         -1.01510       -2.35170       -1.21340
H         -0.87420       -2.44870        0.55460
H         -3.40700       -2.26730        0.75070
