12
gdb 4612	5.83284	1.61803	1.26906	6.6882	60.78	-0.2277	-0.0758	0.1519	870.8648	0.084795	-414.698471	-414.691766	-414.690821	-414.729584	24.623
N          0.02150        1.44660        0.14390
C         -0.01940        0.04780        0.03060
C         -1.14570       -0.70400        0.00600
O         -1.10970       -2.04480       -0.00340
C          0.11250       -2.75490       -0.03180
O          0.04920       -3.94750       -0.06870
N          1.27690       -2.00290       -0.01090
C          1.19960       -0.71100        0.02770
H          0.71750        1.87410       -0.45470
H         -0.87430        1.89010       -0.01350
H         -2.15860       -0.31460        0.00910
H          2.14500       -0.16410        0.05900
