17
gdb 16446	4.34019	1.90762	1.71971	3.2387	67.56	-0.2241	0.068	0.292	817.6417	0.143	-363.783178	-363.776488	-363.775544	-363.813633	26.684
C         -0.01480        1.56380        0.07870
C          0.10650        0.07360        0.00870
N         -0.82590       -0.83080        0.70990
C          0.63060       -0.93820        0.98420
C          1.25520       -1.75960       -0.17150
O          0.47130       -2.83110       -0.72000
C         -0.11800       -1.94690       -1.71110
C          0.69100       -0.73970       -1.18190
H          0.90220        2.05250       -0.26790
H         -0.84070        1.92430       -0.54650
H         -0.20380        1.89420        1.10620
H         -1.22920       -0.30630        1.48610
H          1.00460       -0.81900        1.99500
H          2.31600       -2.00030       -0.06330
H          0.15470       -2.26120       -2.72560
H         -1.20420       -1.88440       -1.60790
H          1.32650       -0.18700       -1.87200
