18
gdb 14481	3.78941	2.13472	2.13064	1.3604	69.18	-0.2538	0.0723	0.3261	750.0304	0.156842	-347.815897	-347.809739	-347.808794	-347.845547	26.504
O         -0.09280        1.35430        0.00400
C         -0.00560       -0.04430        0.00340
C          0.70210       -0.73360        1.20200
C          0.44670       -2.16770        0.76040
C         -0.87590       -2.16770        0.01090
C         -1.38680       -0.73300        0.01510
C          0.43400       -2.16780       -0.76080
C          0.68180       -0.73380       -1.20680
H          0.80180        1.71000       -0.00270
H          1.76800       -0.48110        1.25660
H          0.23020       -0.47540        2.15540
H          0.78290       -3.02650        1.32660
H         -1.53530       -3.02540        0.01650
H         -1.96260       -0.47560        0.90970
H         -1.97760       -0.47570       -0.86970
H          0.76060       -3.02660       -1.33250
H          0.19400       -0.47560       -2.15210
H          1.74670       -0.48120       -1.27940
