13
gdb 4614	5.64029	1.54453	1.2125	4.5832	64.51	-0.2014	-0.04	0.1613	905.932	0.097456	-398.663472	-398.656919	-398.655975	-398.693994	25.303
O         -0.07280        1.40790        0.01110
C          0.03500        0.04420        0.00290
C          1.20830       -0.64370       -0.00790
N          1.19630       -2.01610       -0.01540
C          0.05570       -2.83050       -0.01310
O          0.15840       -4.04810       -0.02040
C         -1.17750       -2.05840       -0.00150
C         -1.18220       -0.69960        0.00610
H          0.80570        1.80140        0.00810
H          2.18260       -0.16870       -0.01100
H          2.06920       -2.52430       -0.02340
H         -2.09670       -2.63070        0.00090
H         -2.11310       -0.14120        0.01470
