20
gdb 14059	3.21065	1.58615	1.43505	1.3391	75.45	-0.2403	0.0677	0.308	998.282	0.176354	-348.97707	-348.968446	-348.967502	-349.010015	32.324
C         -0.07040        1.54330       -0.29700
C          0.02260        0.04240       -0.12890
C          1.35990       -0.65160       -0.08390
O          2.49490        0.15790       -0.20530
C          0.51350       -0.56620        1.16140
C          0.94830        0.14120        2.45140
C          0.66450       -1.18540        3.21900
C         -0.04670       -1.75400        1.95430
H          0.79520        2.04230        0.14330
H         -0.10380        1.81670       -1.35700
H         -0.97550        1.93680        0.17870
H         -0.76180       -0.51980       -0.63260
H          1.44160       -1.62480       -0.57210
H          3.17810       -0.19610        0.37370
H          1.97500        0.51840        2.47740
H          0.28120        0.95800        2.74440
H          1.57920       -1.73010        3.46630
H          0.05850       -1.10430        4.12390
H         -1.13850       -1.73620        2.03680
H          0.25580       -2.75300        1.62480
