16
gdb 1761	4.43403	1.91736	1.70847	4.334	65.73	-0.2781	0.0388	0.317	801.1248	0.135987	-288.654408	-288.646651	-288.645707	-288.685864	28.097
C         -0.07500        1.52930       -0.06610
C          0.03370        0.02310        0.01260
C          1.33000       -0.69720       -0.21730
C          0.72400       -0.68480        1.18270
C          1.40680        0.08680        2.30240
C          0.10160       -1.91190        1.61720
N         -0.39910       -2.89160        1.97660
H          0.84300        2.02870        0.25360
H         -0.26940        1.83530       -1.09950
H         -0.89730        1.90360        0.55240
H         -0.84790       -0.49940       -0.34720
H          1.32570       -1.62940       -0.76950
H          2.22800       -0.10050       -0.34340
H          1.89420        0.98520        1.91900
H          0.68730        0.38810        3.06950
H          2.17170       -0.53180        2.78100
