15
gdb 20223	4.45665	2.78075	2.37178	1.8039	65.91	-0.24	0.0036	0.2436	632.0367	0.122544	-325.46328	-325.458403	-325.457459	-325.491843	21.317
C         -0.05460        1.56640       -0.03960
C          1.18820        2.06770       -0.04970
C          2.16910        0.92210        0.00030
C          2.08670        0.06250        1.29460
C          0.70840       -0.49340        1.30570
C          0.03470        0.06120        0.01760
C          1.41420       -0.29480       -0.59770
N          1.79780       -1.22230        0.57990
H         -0.97830        2.13110       -0.00610
H          1.46200        3.11550       -0.02580
H          3.18550        1.10000       -0.34830
H          2.72690        0.10110        2.16800
H          0.23290       -0.90490        2.18810
H         -0.82540       -0.51790       -0.31580
H          1.53900       -0.62500       -1.62830
