14
gdb 5377	5.27957	1.66068	1.2733	0.8092	69.63	-0.2304	-0.0542	0.1762	910.3923	0.10815	-378.749129	-378.742016	-378.741072	-378.781174	25.215
C         -0.00600        1.45110       -0.00670
N         -0.01220       -0.00010        0.02450
C          0.52690       -0.64510       -0.91660
O          1.13580        0.03430       -1.99920
C          1.70740       -0.66720       -2.99660
N          1.78040       -1.93500       -3.10740
C          1.19810       -2.66440       -2.07100
C          0.59460       -2.08670       -1.01560
H          1.01360        1.85950       -0.02700
H         -0.52550        1.84680       -0.89000
H         -0.50970        1.82910        0.88560
H          2.12790       -0.00350       -3.74690
H          1.26370       -3.74230       -2.17150
H          0.14350       -2.65420       -0.21260
