17
gdb 14387	3.75088	2.1734	1.86902	2.8132	66.61	-0.2395	0.0705	0.31	776.442	0.14234	-363.798519	-363.791552	-363.790607	-363.82905	27.91
C         -0.04030        1.57780        0.05440
C          0.08100        0.06080        0.01860
O         -1.20360       -0.54310        0.09520
C          0.83110       -0.63730       -1.10140
C          2.27820       -0.72820       -0.73440
C          2.49360       -0.11150        0.63780
C          1.09660       -0.68560        0.92900
N          1.30570       -1.74510       -0.20560
H          0.91920        2.07670       -0.09980
H         -0.73030        1.90750       -0.72810
H         -0.44220        1.91190        1.01940
H         -1.61570       -0.25250        0.91610
H          0.46470       -0.83960       -2.10170
H          3.02960       -1.00400       -1.46620
H          3.26640       -0.66060        1.18260
H          2.66500        0.96400        0.74530
H          0.79560       -1.01480        1.92320
