20
gdb 10174	3.20592	1.06947	0.84636	0.998	77.21	-0.2576	0.0515	0.3091	1381.59	0.174324	-348.972263	-348.962128	-348.961184	-349.00744	35.973
C         -1.51910       -0.26530       -0.02110
C         -0.00050       -0.09450        0.03460
C          0.73690       -0.62730       -1.21770
C          2.24280       -0.29190       -1.15720
C          3.00820       -0.66830       -2.41900
O          4.35360       -0.24770       -2.24300
C          0.51460       -2.06380       -1.39120
C          0.33900       -3.24810       -1.50870
H         -1.94680        0.26870       -0.87720
H         -1.79340       -1.32000       -0.11460
H         -1.98910        0.12870        0.88500
H          0.25070        0.96760        0.14120
H          0.40190       -0.60280        0.91880
H          0.31180       -0.11430       -2.09390
H          2.35540        0.78550       -0.99100
H          2.70000       -0.79950       -0.30060
H          2.94360       -1.75340       -2.58350
H          2.54850       -0.17550       -3.29260
H          4.86170       -0.54540       -3.00290
H          0.18050       -4.29190       -1.62320
