15
gdb 21317	7.32756	1.12977	0.99941	1.3471	63.19	-0.2554	-0.0022	0.2532	1130.5948	0.120422	-395.969314	-395.961696	-395.960752	-396.002795	25.993
C          0.09690        1.38820        0.05130
O          0.19310       -0.01620        0.09030
C          0.58040       -0.56930       -1.14810
C          0.57600       -2.05810       -1.01610
N          1.33240       -2.84380       -1.78470
N          1.01380       -4.06490       -1.37270
N          0.12400       -4.15050       -0.39480
C         -0.17480       -2.87400       -0.15040
H          1.06210        1.85640       -0.19730
H         -0.64820        1.72600       -0.68640
H         -0.21180        1.72080        1.04490
H         -0.11910       -0.25170       -1.94170
H          1.58170       -0.22350       -1.45020
H          1.44060       -4.88420       -1.77330
H         -0.87990       -2.59600        0.61450
