15
gdb 21209	5.34559	1.34893	1.09487	2.3552	64.06	-0.1861	0.0538	0.2399	1038.9116	0.120085	-395.990515	-395.982501	-395.981557	-396.022909	28.999
C          0.04340        1.39440       -0.13270
N         -0.04140       -0.00140        0.25820
C         -1.25470       -0.66010        0.12690
N         -1.28170       -1.97070       -0.09200
N         -2.61910       -2.27560       -0.08890
C         -3.39090       -1.19220        0.10450
O         -4.73370       -1.34240        0.11900
C         -2.55780       -0.10110        0.25170
H          1.07340        1.73590       -0.00400
H         -0.26150        1.58760       -1.17370
H         -0.58580        2.00690        0.52170
H          0.71860       -0.57270       -0.08500
H         -2.92190       -3.22020       -0.24520
H         -5.13620       -0.48380        0.28080
H         -2.84390        0.92130        0.43210
