14
gdb 21255	7.2655	1.31399	1.12218	1.9634	61.57	-0.2183	0.027	0.2453	1012.3321	0.107572	-415.845957	-415.838399	-415.837455	-415.877922	27.315
C          0.00980        1.41340        0.08560
O          0.01020       -0.01780        0.01100
C          0.61490       -0.67410        0.99340
C          0.77780       -2.01490        1.17050
C          1.50480       -2.07760        2.39310
N          1.99990       -3.21810        3.00100
N          1.74590       -0.88940        2.91270
O          1.17060        0.02510        1.98530
H          1.03110        1.80420        0.08130
H         -0.52540        1.75020       -0.80180
H         -0.50310        1.75660        0.98840
H          0.45570       -2.81380        0.52650
H          1.38830       -4.01910        2.93680
H          2.30200       -3.05300        3.95220
