17
gdb 7812	3.22414	1.74906	1.22008	2.9537	64.67	-0.2184	-0.0181	0.2004	966.0194	0.143446	-401.013582	-401.00596	-401.005016	-401.045533	28.867
O         -0.10700        1.44800        0.04540
C          0.04140        0.03670        0.00660
C          0.78110       -0.50900        1.23990
N          0.82810       -1.96870        1.29140
C         -0.50770       -2.57510        1.26170
C         -1.37430       -2.07160        0.10530
O         -2.00360       -2.81380       -0.61150
C         -1.37000       -0.55790       -0.07170
H          0.76880        1.84550       -0.00040
H          0.60140       -0.26710       -0.89520
H          1.80750       -0.12350        1.26600
H          0.27430       -0.14050        2.14190
H          1.37340       -2.32210        0.51050
H         -0.42550       -3.66220        1.19520
H         -1.01530       -2.33340        2.20730
H         -1.95310       -0.12070        0.75190
H         -1.86570       -0.29780       -1.00910
