19
gdb 10181	3.39619	1.05967	0.85156	3.2512	72.1	-0.282	0.0272	0.3091	1365.0256	0.164316	-365.083476	-365.073812	-365.072868	-365.118447	33.67
C         -0.02710        1.57350        0.04810
C          0.00050        0.04350        0.01080
C          0.69890       -0.50230       -1.23910
C          0.73280       -2.04250       -1.31800
C          1.33820       -2.54700       -2.65150
O          1.32770       -3.95010       -2.76400
C          1.49190       -2.62820       -0.20860
N          2.12600       -3.11340        0.62830
H          0.98700        1.98790        0.04660
H         -0.55420        1.98360       -0.82040
H         -0.53320        1.93710        0.94720
H          0.50740       -0.33870        0.90490
H         -1.02530       -0.34550        0.04960
H          0.18550       -0.13820       -2.13790
H          1.72550       -0.11870       -1.28820
H         -0.29000       -2.43470       -1.25300
H          0.72200       -2.16550       -3.47140
H          2.34950       -2.12880       -2.76810
H          1.92770       -4.30980       -2.10040
