13
gdb 1071	7.59039	2.03649	1.62227	0.9543	55.31	-0.2094	0.0248	0.2342	727.1103	0.102566	-344.463291	-344.457126	-344.456181	-344.493322	22.554
C         -0.02870        1.39310        0.03600
O         -0.00940       -0.02290        0.02290
C          0.60180       -0.57570       -1.04820
C          1.20450        0.01370       -2.12280
O          1.68750       -0.95600       -2.96080
C          1.38400       -2.15230       -2.40540
C          0.71950       -1.99330       -1.23350
H          0.99090        1.80210        0.04210
H         -0.56460        1.78910       -0.83740
H         -0.54670        1.69280        0.94770
H          1.36900        1.03090       -2.42990
H          1.70410       -3.02120       -2.95720
H          0.35140       -2.75970       -0.57070
