16
gdb 15573	3.48413	1.9073	1.26842	2.8247	69.28	-0.2199	-0.0659	0.1541	931.8041	0.131191	-379.938689	-379.930901	-379.929956	-379.971033	27.483
C          0.18610        1.30530       -0.37370
N          0.09560       -0.05810        0.11220
C         -1.14120       -0.81610       -0.10480
C         -0.68090       -2.25930        0.22030
N          0.79000       -2.22880        0.17650
C          1.11690       -0.98340        0.11920
C          2.57220       -0.65880        0.13760
O          3.05560        0.44750        0.15120
H          1.18030        1.69860       -0.17210
H         -0.01250        1.36710       -1.45580
H         -0.55560        1.92610        0.13980
H         -1.94750       -0.45570        0.54140
H         -1.47310       -0.70960       -1.15020
H         -0.99150       -2.56470        1.22810
H         -1.07230       -3.00580       -0.47600
H          3.18530       -1.58020        0.14600
