14
gdb 669	6.33505	4.50061	3.19825	0.2073	57.35	-0.2245	0.0251	0.2495	467.6418	0.122084	-233.293627	-233.288816	-233.287872	-233.321386	19.325
C         -0.01570        1.48460        0.05910
C          1.30750        0.76710        0.01000
C          2.00380        0.43570        1.33150
C          1.01150       -0.46680        2.03770
C         -0.04870       -0.74260        1.27400
C          0.01120       -0.02980       -0.03520
H         -0.34330        1.92440        0.99600
H         -0.30560        2.03790       -0.82850
H          1.91320        0.88820       -0.88020
H          2.96020       -0.07830        1.16390
H          2.23780        1.33370        1.91840
H          1.16130       -0.81560        3.05340
H         -0.88310       -1.37220        1.56190
H         -0.35130       -0.50620       -0.93950
