16
gdb 19301	3.53507	1.84853	1.48533	2.5862	59.21	-0.2532	0.0577	0.3109	857.7852	0.130732	-420.8241	-420.816868	-420.815924	-420.855531	27.707
O          0.09780        1.33230        0.21200
C          0.05490       -0.02640       -0.18670
C         -1.36260       -0.58210       -0.08550
C         -1.56820       -2.10160       -0.04550
O         -0.91840       -2.58990        1.14420
C         -2.24390       -2.04630        1.26200
C         -2.04020       -0.52680        1.34920
O         -1.24770       -0.07210        2.42360
H         -0.18740        1.34240        1.13510
H          0.40700       -0.06260       -1.22340
H          0.73960       -0.64780        0.40950
H         -2.01520       -0.10360       -0.82160
H         -1.69130       -2.80960       -0.85630
H         -3.00120       -2.68120        1.70670
H         -2.96430        0.05350        1.35780
H         -0.56510       -0.74480        2.55140
