14
gdb 12291	3.16154	2.34532	1.35748	5.1837	67.63	-0.2181	-0.0592	0.1589	848.4694	0.108405	-378.750293	-378.743235	-378.742291	-378.783294	26.037
N         -0.03330        1.22420        0.51540
C          0.02460        0.04690        0.02770
N          1.17760       -0.67320       -0.24060
C          1.21520       -1.96040       -0.77460
C          0.12020       -2.65000       -1.09060
C         -1.24780       -2.07550       -0.88850
C         -1.29560       -0.66400       -0.30320
O         -2.34450       -0.11080       -0.10150
H          0.90040        1.60190        0.69750
H          2.05360       -0.22130       -0.02920
H          2.21570       -2.35320       -0.91090
H          0.21600       -3.64690       -1.50230
H         -1.81380       -2.04000       -1.83020
H         -1.85680       -2.70670       -0.22580
