18
gdb 16014	4.0423	1.77026	1.40918	1.9146	74.32	-0.2406	0.0109	0.2515	917.5326	0.155565	-347.805699	-347.79876	-347.797816	-347.836675	27.584
C          0.02340        1.49870        0.01430
O          1.21510        0.72180       -0.04140
C         -0.06030        0.02900        0.00410
C         -0.36410       -0.71990        1.28900
C         -0.05900       -2.21530        1.13330
C         -0.87170       -2.81730       -0.02180
C         -0.80310       -1.96060       -1.25910
C         -0.41610       -0.68360       -1.24690
H         -0.14790        2.03460        0.94850
H         -0.21520        2.06250       -0.88780
H          0.21740       -0.27630        2.10260
H         -1.42700       -0.58720        1.53340
H          1.01040       -2.34010        0.92450
H         -0.26850       -2.74820        2.06620
H         -0.51180       -3.82690       -0.25430
H         -1.92300       -2.94410        0.27960
H         -1.07920       -2.42640       -2.20210
H         -0.34120       -0.11420       -2.16920
