11
gdb 3636	9.55607	1.92129	1.59967	2.2269	60.69	-0.2281	-0.0002	0.228	706.3058	0.08027	-302.288055	-302.282301	-302.281357	-302.31742	21.484
C          0.03560       -1.22580       -0.00460
C         -0.00440       -0.02220        0.00280
C         -0.03110        1.38990        0.01120
C         -1.14160        2.22270        0.03030
N         -0.66840        3.48690        0.03140
N          0.67850        3.55670        0.01430
C          1.07030        2.29120        0.00200
H          0.06870       -2.28670       -0.01110
H         -2.19570        1.99840        0.04260
H         -1.19920        4.34130        0.04310
H          2.12090        2.04430       -0.01300
