13
gdb 21651	7.55374	1.28097	1.09674	2.8827	65.58	-0.2185	-0.0612	0.1572	996.1112	0.097576	-394.814767	-394.807756	-394.806811	-394.845923	25.739
N         -0.08030        1.37950        0.15290
C          0.05610       -0.00030        0.04690
N         -1.02650       -0.78980        0.01970
N         -0.53760       -2.03870       -0.00450
C          0.81700       -2.07970       -0.00760
C          1.53300       -3.34700       -0.03930
O          0.97840       -4.42670       -0.06450
C          1.24630       -0.75850        0.02850
H          0.61070        1.89990       -0.36900
H         -1.01600        1.68650       -0.07840
H         -1.15300       -2.83520       -0.02560
H          2.63860       -3.25760       -0.03920
H          2.26480       -0.40530        0.04960
