12
gdb 64	7.90009	3.95466	2.88643	3.9512	46.23	-0.318	0.0365	0.3545	460.694	0.102281	-211.295796	-211.289821	-211.288877	-211.324525	20.467
C         -0.00240        1.55040        0.01060
C         -0.01860        0.01000       -0.02260
C         -1.45050       -0.55770        0.01290
C          0.70130       -0.48580       -1.20170
N          1.26190       -0.87130       -2.13620
H          1.01960        1.93670        0.00350
H         -0.52970        1.96140       -0.85500
H         -0.50130        1.90350        0.91760
H          0.52480       -0.36220        0.85530
H         -2.02430       -0.21430       -0.85250
H         -1.44440       -1.65030        0.00750
H         -1.95810       -0.21730        0.92000
