18
gdb 15231	3.062	1.47292	1.31211	1.0579	74.48	-0.247	0.0379	0.2849	1036.3497	0.151346	-347.757742	-347.74862	-347.747676	-347.791473	33.313
C         -0.26360        1.52220        0.17790
C          0.24080        0.09940       -0.08950
C          0.84280       -0.52770        1.14850
C         -0.02270       -1.23350        2.15370
O         -1.38760       -1.35620        1.91340
C          0.95870       -2.05040        1.31240
C          0.40100       -2.94670        0.34720
C         -0.13280       -3.70970       -0.41780
H          0.54340        2.17300        0.53280
H         -0.67570        1.96970       -0.73180
H         -1.04960        1.51410        0.93890
H         -0.58660       -0.52060       -0.44420
H          0.99030        0.10840       -0.89030
H          1.68890        0.01370        1.56620
H          0.21510       -1.12790        3.21000
H         -1.54190       -2.19680        1.46270
H          1.84630       -2.41640        1.81940
H         -0.56260       -4.37980       -1.12050
