15
gdb 8931	3.82733	1.26924	1.0048	5.2351	57.96	-0.2836	0.0072	0.2908	1098.9152	0.116716	-436.927471	-436.918366	-436.917422	-436.961373	31.771
O         -0.09910        1.40450       -0.21750
C          0.02520        0.01360        0.06010
C         -1.39960       -0.53430        0.00630
O         -1.99820       -0.23190       -1.23240
C         -1.41460       -2.06690        0.14950
O         -0.75030       -2.50700        1.31970
C         -2.79550       -2.58380        0.09400
N         -3.87260       -3.00050        0.11820
H          0.77490        1.76670       -0.38660
H          0.63610       -0.49200       -0.70260
H          0.47170       -0.17020        1.04470
H         -1.97310       -0.09520        0.84110
H         -1.76440        0.68650       -1.41950
H         -0.85980       -2.49010       -0.69500
H         -1.30490       -2.29990        2.08090
