14
gdb 5207	9.0336	0.99873	0.90439	3.7862	78.61	-0.2083	-0.0028	0.2055	1235.0018	0.108607	-341.607063	-341.599433	-341.598489	-341.640949	26.431
C         -0.06770        1.47210        0.01070
C         -0.01260        0.01920        0.00280
C          0.04320       -1.18700       -0.00370
C          0.11030       -2.59230       -0.01140
C          1.16750       -3.48240       -0.02240
N          0.72260       -4.77690       -0.02640
C         -0.59060       -4.69450       -0.01800
N         -1.01560       -3.40360       -0.00880
H          0.94110        1.89920        0.00330
H         -0.59700        1.85930       -0.86750
H         -0.58020        1.85040        0.90260
H          2.21900       -3.24070       -0.02750
H         -1.27780       -5.52740       -0.01820
H         -1.96640       -3.07380       -0.00140
