18
gdb 17823	4.74358	1.20962	1.07822	2.1262	68.03	-0.2488	0.0797	0.3286	1122.6915	0.152983	-384.895566	-384.88732	-384.886376	-384.929693	29.008
C          0.01220        1.48850       -0.34570
C         -0.07120        0.03910        0.06020
O          1.13690       -0.72940        0.02860
C          0.49550       -0.53370        1.29520
C          1.24970        0.23820        2.33960
C          0.49930        0.50790        3.66680
O          1.46070       -0.24910        4.42530
C          2.21020       -0.58010        3.23820
H          0.87600        1.98910        0.09570
H          0.09850        1.56750       -1.43430
H         -0.89570        2.02190       -0.04360
H         -0.92840       -0.49140       -0.36130
H          0.01320       -1.43600        1.68260
H          1.71650        1.12250        1.90650
H          0.45270        1.55650        3.98420
H         -0.50870        0.07520        3.72990
H          2.22220       -1.66070        3.04540
H          3.24300       -0.21620        3.28800
