14
gdb 3274	5.6373	2.58349	2.11262	2.7501	58.21	-0.2587	0.0257	0.2844	635.8484	0.11516	-324.559733	-324.554024	-324.55308	-324.589253	21.796
N         -0.11640        1.21180       -0.48570
C         -0.06560        0.02940       -0.07280
O          0.98590       -0.68340        0.48380
C          0.16930       -1.89240        0.58610
C         -0.51360       -2.01850        1.96260
C         -1.73630       -1.21280        1.41930
C         -1.04910       -1.11230        0.01920
H          0.78040        1.68640       -0.36680
H          0.66500       -2.74450        0.12230
H         -0.75860       -3.04960        2.22900
H          0.05180       -1.56660        2.77960
H         -2.65610       -1.79930        1.39060
H         -1.94890       -0.25570        1.89830
H         -1.61910       -1.36950       -0.87050
