15
gdb 15961	3.10801	1.92704	1.36017	3.6939	65.52	-0.2786	0.0193	0.2979	895.7131	0.118988	-362.644555	-362.637363	-362.636419	-362.676259	26.566
N         -0.39970       -0.90170       -0.78930
C         -0.24250        0.17700       -0.40290
C         -0.00600        1.51990        0.09380
C          0.05210        1.75110        1.64330
C          1.29250        2.67040        1.44190
C          1.43310        2.08570        0.03600
C          2.59710        1.50500       -0.62960
O          1.98540        2.73020       -1.07980
H         -0.69890        2.21870       -0.38490
H         -0.83690        2.19890        2.08650
H          0.29590        0.83010        2.17450
H          1.02440        3.73000        1.40460
H          2.13260        2.53930        2.12580
H          3.58300        1.61690       -0.18180
H          2.46910        0.65130       -1.29220
