18
gdb 6572	3.72198	1.67128	1.46204	2.3762	67.9	-0.243	0.076	0.3191	921.329	0.151613	-384.906779	-384.898559	-384.897615	-384.938519	32.341
C         -0.10150        1.56450        0.05950
C          0.04870        0.04920        0.01080
O         -1.21610       -0.57390       -0.16150
C          1.13610       -0.55340       -0.96000
C          1.76590       -1.26540        0.24530
O          2.21740       -2.57280        0.22900
C          2.19600       -0.27140        1.28300
C          0.73520       -0.66210        1.18320
H          0.85320        2.06560        0.24090
H         -0.49280        1.94250       -0.89370
H         -0.80090        1.84890        0.85150
H         -1.61300       -0.21750       -0.96400
H          0.66390       -1.25860       -1.64670
H          1.77520        0.14300       -1.51500
H          3.15430       -2.56640        0.00390
H          2.70390       -0.71230        2.13520
H          2.54280        0.72530        1.01820
H          0.19810       -1.10900        2.01040
