12
gdb 1605	4.39025	2.08156	1.5197	1.6656	52.44	-0.2949	-0.1024	0.1925	759.8649	0.087782	-360.531172	-360.523616	-360.522672	-360.563033	25.743
C         -0.05070        1.57430       -0.10230
C          0.03500        0.05820        0.13050
O          0.68520       -0.22700        1.33480
C         -1.34160       -0.58730        0.12680
O         -1.75660       -1.23150        1.06090
C         -2.14970       -0.40760       -1.08870
N         -2.76610       -0.25970       -2.05570
H          0.96090        1.98490       -0.08270
H         -0.50400        1.80520       -1.07010
H         -0.63210        2.04930        0.69270
H          0.57930       -0.39250       -0.72000
H          0.09960       -0.80960        1.84130
