18
gdb 16006	3.74222	1.90498	1.50886	1.7078	72.63	-0.2403	0.0281	0.2685	882.88	0.155345	-347.803944	-347.796976	-347.796032	-347.834923	27.603
C          0.02650        1.49060       -0.00050
O          1.20650        0.68160        0.00690
C         -0.07690        0.02820        0.00590
C         -0.39280       -0.73120        1.27660
C          0.36750       -2.06820        1.29370
C          0.25030       -2.79170       -0.02340
C         -0.10740       -2.19490       -1.15970
C         -0.41860       -0.72300       -1.26910
H         -0.16400        2.05130        0.91460
H         -0.15490        2.04260       -0.92290
H         -0.13360       -0.12490        2.14940
H         -1.47240       -0.92520        1.31400
H          1.42730       -1.88270        1.51840
H         -0.00490       -2.70230        2.10700
H          0.48320       -3.85380       -0.02560
H         -0.18140       -2.77430       -2.07680
H         -1.48350       -0.58440       -1.50980
H          0.14170       -0.27480       -2.09830
