15
gdb 10997	4.31254	1.79824	1.50941	4.1231	67.13	-0.2325	-0.0567	0.1758	849.2376	0.119445	-362.663577	-362.656717	-362.655772	-362.694343	26.45
C         -0.03820        1.54840        0.03340
C          0.09930        0.04940        0.01300
N         -0.77780       -0.81500        0.85160
C          0.70070       -0.76650        1.09070
C          1.43140       -1.92130        0.42410
O          2.12090       -2.75030        0.96740
C          1.15610       -1.77890       -1.03630
C          0.43710       -0.67350       -1.26560
H          0.86300        2.03120       -0.35840
H         -0.88590        1.87320       -0.58070
H         -0.19980        1.91320        1.05250
H         -1.21710       -0.23330        1.56770
H          1.07540       -0.35720        2.02130
H          1.49230       -2.50670       -1.76320
H          0.08410       -0.33090       -2.23230
