13
gdb 3466	5.72448	2.62274	2.58496	1.3441	53.55	-0.2487	-0.0039	0.2448	571.3321	0.102997	-344.398797	-344.3936	-344.392656	-344.427423	21.179
O          0.19680        1.34860       -0.14910
C          0.08850       -0.03020       -0.07310
C          0.04950       -0.64630        1.38300
O         -1.33990       -0.16370        1.45090
C         -1.37890       -0.60780        0.04750
C         -1.10010       -2.09890        0.15780
C         -0.12210       -2.12530        1.07220
H         -0.41470        1.69770        0.51510
H          0.76280       -0.47550       -0.80710
H          0.68850       -0.30570        2.19640
H         -2.22290       -0.22710       -0.52570
H         -1.56060       -2.89320       -0.41030
H          0.45230       -2.94760        1.47180
