15
gdb 520	10.01609	1.67405	1.47386	2.8394	57.34	-0.2447	0.0282	0.2729	829.3437	0.129694	-287.683128	-287.675482	-287.674538	-287.715221	25.268
C         -0.43880        1.22650        0.40580
C          0.37750        0.03240       -0.10060
N          0.66080       -1.06460        0.80870
C          0.24620       -1.04180        1.99370
O          0.52100       -2.07410        2.82400
C          0.00680       -1.94970        4.14210
H          0.05500        1.73520        1.24080
H         -0.55820        1.95550       -0.40140
H         -1.44070        0.92810        0.73310
H         -0.12460       -0.40130       -0.97590
H          1.34480        0.39160       -0.47700
H         -0.34400       -0.24310        2.46240
H          0.41960       -1.07310        4.65720
H         -1.08870       -1.88460        4.14540
H          0.30980       -2.85060        4.67740
