16
gdb 2274	7.27772	1.46563	1.29628	4.0444	64.85	-0.3057	0.0351	0.3408	912.7364	0.137855	-288.650589	-288.643582	-288.642638	-288.682013	25.316
N          0.06350       -1.17690       -0.14260
C          0.02770       -0.03180        0.00960
C          0.01390        1.41850        0.19700
C          1.40540        2.04380        0.04890
C          2.08150        2.06760       -1.34940
C          2.59540        3.49720       -1.02610
C          1.51500        3.59300        0.08570
H         -0.67460        1.85700       -0.53560
H         -0.39940        1.63700        1.18930
H          2.08020        1.59760        0.78590
H          2.81530        1.29040       -1.57110
H          1.33580        2.07960       -2.15130
H          3.60550        3.48020       -0.60820
H          2.56350        4.23960       -1.82600
H          0.59880        4.06560       -0.28430
H          1.78770        4.06050        1.03470
