15
gdb 15041	3.06929	1.75854	1.18183	2.9994	71.73	-0.2577	-0.0508	0.2069	998.2537	0.118158	-358.821554	-358.813342	-358.812397	-358.854559	28.51
C          0.08130        1.24170        0.32080
N          0.00230       -0.17570        0.03820
C         -1.11180       -0.73970       -0.18960
C         -2.40440       -0.06720       -0.13880
N         -3.41770        0.48550       -0.06730
N         -1.21600       -2.07310       -0.58960
C         -0.27650       -3.05410       -0.08190
C         -1.71290       -3.09760        0.33110
H          0.70350        1.71950       -0.44450
H         -0.88670        1.75800        0.36120
H          0.59740        1.38050        1.27710
H          0.09510       -3.76070       -0.81720
H          0.45370       -2.70240        0.64040
H         -1.95190       -2.78960        1.34580
H         -2.39190       -3.82270       -0.10570
