17
gdb 20892	5.47514	1.28065	1.13841	2.4216	72.15	-0.19	0.0308	0.2208	1080.5778	0.143919	-360.060761	-360.052603	-360.051658	-360.093923	29.56
C         -0.24280        1.50550        0.17460
C          0.17310        0.04590       -0.01950
N          0.78270       -0.52880        1.16620
C          0.17600       -1.26630        2.14210
C          1.13190       -1.50670        3.11300
N          0.97910       -2.17200        4.34300
C          2.28770       -0.85760        2.62420
N          2.06520       -0.26780        1.44840
H          0.62660        2.11070        0.44270
H         -0.67400        1.90260       -0.74970
H         -0.98730        1.59850        0.97100
H         -0.68970       -0.57470       -0.28030
H          0.90290       -0.03800       -0.82930
H         -0.85890       -1.56080        2.06840
H          0.27240       -2.89560        4.31020
H          1.84670       -2.58380        4.66230
H          3.26700       -0.80720        3.07850
