16
gdb 3554	4.927	2.9229	2.61882	1.64	63.05	-0.2338	0.0928	0.3265	607.3641	0.138387	-288.573876	-288.568129	-288.567184	-288.603011	23.037
C         -0.03480        1.58030       -0.01360
C          0.07700        0.06820       -0.08160
C          0.74870       -0.67290       -1.26020
C          2.18530       -0.08660       -1.29810
C          2.34380       -0.69040        0.09600
C          1.25940       -1.66960       -0.14690
N          1.04450       -0.59780        0.86200
H          0.92650        2.07770       -0.16260
H         -0.73310        1.94870       -0.77350
H         -0.41460        1.88120        0.96820
H         -0.89940       -0.38330        0.12690
H          0.21650       -0.90930       -2.18010
H          2.81010       -0.62670       -2.01450
H          2.31070        0.99050       -1.44520
H          3.23650       -0.79040        0.69900
H          1.14630       -2.72790        0.04680
