15
gdb 7062	6.1969	0.96062	0.90874	4.0353	66.7	-0.2648	-0.0119	0.2529	1215.8214	0.117999	-358.845034	-358.836471	-358.835527	-358.878637	29.373
C         -0.00490        1.49220       -0.00960
N          0.00180        0.03000        0.00180
C          0.70400       -0.51940        1.15610
C          2.12770       -0.16710        1.14580
N          3.24830        0.11110        1.15910
C         -1.33840       -0.53840       -0.08870
C         -1.98650       -0.20530       -1.36170
N         -2.51560        0.05760       -2.35370
H          1.02380        1.85850       -0.00270
H         -0.48740        1.84440       -0.92370
H         -0.53790        1.92100        0.85830
H          0.27970       -0.18630        2.12330
H          0.62780       -1.61250        1.13440
H         -1.26950       -1.63010       -0.02200
H         -2.00810       -0.20760        0.72900
