12
gdb 9024	4.61834	0.93541	0.80227	5.3708	74.16	-0.2731	-0.0507	0.2225	1315.0369	0.082709	-340.31723	-340.308903	-340.307959	-340.350451	28.999
N         -0.05940        1.49480        0.06180
C          0.04920        0.02710       -0.00340
C          0.70530       -0.49460       -1.21510
C          1.23130       -0.87220       -2.22700
C          0.73120       -0.46980        1.19750
C          1.29380       -0.88530        2.18070
C          1.93220       -1.35090        3.29460
N          2.47570       -1.74710        4.24150
H          0.87060        1.89810       -0.01670
H         -0.57840        1.81220       -0.75280
H         -0.97810       -0.36440        0.02530
H          1.69850       -1.21530       -3.11750
