14
gdb 14437	4.46467	2.27834	1.92145	1.4851	59.67	-0.2248	-0.0101	0.2147	697.644	0.108704	-378.655314	-378.64942	-378.648476	-378.684899	23.824
O         -0.08230        1.39430       -0.04810
C          0.01000        0.02110       -0.05880
C          0.71000       -0.82990       -1.10040
N         -0.25500       -1.98280       -0.75660
C          0.42760       -2.64950        0.33960
N          0.46030       -2.04000        1.45540
C         -0.29400       -0.82060        1.21500
C         -1.11720       -0.97020       -0.02430
H          0.63450        1.74890        0.48960
H          0.50310       -0.48550       -2.11510
H          1.77330       -1.07200       -0.99120
H          0.93700       -3.58720        0.14350
H         -0.64960       -0.26060        2.07040
H         -2.18840       -0.90770       -0.16920
