9
gdb 771	9.79231	3.875	2.78226	1.8006	39.9	-0.2447	-0.0138	0.2309	430.7491	0.06371	-317.409527	-317.404846	-317.403902	-317.437319	16.859
N          0.01840        1.36010        0.15390
C         -0.01930       -0.00290        0.04300
N         -1.13240       -0.70050       -0.01120
O         -0.65890       -2.03280       -0.04350
C          0.66530       -1.95460       -0.01590
N          1.14220       -0.75270        0.03640
H          0.87090        1.78030       -0.18210
H         -0.82380        1.83970       -0.12470
H          1.21530       -2.88440       -0.03910
