16
gdb 5640	3.39098	1.92581	1.34733	3.3083	66.16	-0.198	0.0463	0.2443	914.1388	0.131641	-379.956223	-379.948396	-379.947452	-379.988634	28.467
C          0.00260        1.55450       -0.00270
C         -0.01650        0.02480        0.02840
N         -1.36300       -0.52800        0.02400
C         -2.06980       -1.04110        1.08670
N         -3.27180       -1.42720        0.74480
C         -3.37970       -1.15620       -0.60560
C         -2.20940       -0.60260       -1.05380
O         -1.75530       -0.15190       -2.25200
H          1.03480        1.91770        0.01400
H         -0.47790        1.92540       -0.91140
H         -0.52380        1.96840        0.86220
H          0.52290       -0.37830       -0.83430
H          0.47920       -0.35080        0.92810
H         -1.63250       -1.10400        2.07230
H         -4.27560       -1.37630       -1.16580
H         -2.43720       -0.30780       -2.91260
