15
gdb 6948	2.73631	2.38042	1.70113	4.0815	62.52	-0.2253	-0.0202	0.2051	802.9966	0.118169	-399.838232	-399.830426	-399.829482	-399.869998	29.246
C         -0.01650        1.58630        0.03040
C         -0.02080        0.06160       -0.06930
O         -1.38810       -0.32450       -0.12550
C          0.82320       -0.49020       -1.19850
C          1.82800       -1.20540       -0.68500
N          1.79090       -1.22220        0.72010
C          0.68420       -0.54080        1.19310
O          0.34000       -0.44160        2.34500
H          1.00470        1.97460        0.06340
H         -0.53130        2.01170       -0.83520
H         -0.54110        1.88400        0.94220
H         -1.42460       -1.28210       -0.22580
H          0.63600       -0.30190       -2.24490
H          2.62580       -1.72870       -1.19390
H          2.38560       -1.77630        1.31400
