20
gdb 6734	5.2789	0.70841	0.67897	1.2012	81.13	-0.2412	0.0371	0.2783	1723.5303	0.174199	-348.978111	-348.967712	-348.966768	-349.015422	35.906
C         -0.10720        1.54110       -0.03300
C         -0.05530        0.00890       -0.02340
C          0.99040       -0.50940        0.96950
C         -1.46050       -0.56780        0.27940
C         -1.54790       -2.01920        0.16780
C         -1.60550       -3.21690        0.05560
C         -1.68460       -4.66760       -0.05250
O         -1.90830       -5.03840       -1.40900
H          0.87230        1.96530       -0.27550
H         -0.82640        1.91490       -0.76960
H         -0.40210        1.93010        0.94920
H          0.22470       -0.33480       -1.02750
H          1.02250       -1.60240        0.97390
H          1.98890       -0.13900        0.71610
H          0.76030       -0.17460        1.98860
H         -1.76240       -0.26030        1.29100
H         -2.19040       -0.11290       -0.40300
H         -0.75020       -5.11070        0.32990
H         -2.49680       -5.03360        0.59720
H         -1.95640       -5.99950       -1.43760
