19
gdb 19288	3.40159	1.73711	1.40735	2.6455	70.59	-0.2365	0.0734	0.3099	954.7739	0.166299	-365.018734	-365.010874	-365.00993	-365.050754	30.368
C         -0.05400        1.57510        0.02420
C          0.15600        0.05840        0.09580
C          0.72620       -0.52070       -1.19290
C          0.86540       -2.04010       -1.33120
N         -0.51460       -2.59500       -1.34340
C          0.08360       -2.06090       -2.59520
C         -0.18350       -0.55190       -2.50350
O         -1.52900       -0.17710       -2.39140
H          0.88740        2.09760       -0.18230
H         -0.76280        1.82630       -0.76950
H         -0.44790        1.96440        0.96830
H          0.83670       -0.18600        0.92230
H         -0.79210       -0.43890        0.32500
H          1.67780       -0.03570       -1.43950
H          1.70000       -2.66380       -1.03400
H         -0.44220       -3.61020       -1.37740
H          0.17590       -2.68550       -3.47530
H          0.24900        0.02730       -3.32160
H         -1.93040       -0.84440       -1.81710
