14
gdb 16132	4.91488	1.72693	1.47481	3.824	63.26	-0.2544	-0.0414	0.213	833.1603	0.106563	-382.531781	-382.52514	-382.524196	-382.562674	24.898
O          0.05570        0.11410       -0.67240
C          0.23100        0.96300        0.16210
C          1.34950        1.95180        0.14480
C          1.70220        2.78950        1.37080
C          2.21820        4.08320        0.77470
C          2.14360        4.09460       -0.55870
C          1.63140        2.78780       -1.06300
O          2.44910        1.66600       -0.71440
H         -0.46240        1.08810        1.02580
H          0.81820        2.95560        2.00120
H          2.45260        2.29400        1.99800
H          2.62330        4.87920        1.38890
H          2.43100        4.90900       -1.21140
H          1.07760        2.67850       -1.99060
