15
gdb 1700	4.12906	2.34613	1.95474	1.7358	62.67	-0.2515	0.0292	0.2807	719.5951	0.123209	-308.466631	-308.459272	-308.458327	-308.49795	26.942
C         -0.22570        1.64750       -0.03060
C          0.01920        0.14260       -0.05230
C          0.83650       -0.41470       -1.25850
C          1.85720       -0.84830       -0.19220
O          1.09510       -0.22420        0.86260
C         -1.20540       -0.60110        0.23780
C         -2.21660       -1.21000        0.46590
H          0.70510        2.17820       -0.24890
H         -0.98010        1.92410       -0.77350
H         -0.58190        1.95500        0.95630
H          0.35450       -1.21350       -1.82060
H          1.18210        0.36170       -1.94320
H          1.94260       -1.93180       -0.04590
H          2.86250       -0.42030       -0.27520
H         -3.10650       -1.75080        0.67520
