18
gdb 15997	3.73667	1.48371	1.21644	2.1598	67.98	-0.2247	0.0676	0.2923	1022.5387	0.152847	-384.894491	-384.886284	-384.885339	-384.927555	30.152
O         -0.07190        1.41620       -0.20870
C         -0.03520        0.05810        0.20490
C         -1.43010       -0.50760        0.02060
C         -1.86460       -0.74460       -1.44210
O         -1.89090       -2.18010       -1.24800
C         -1.56990       -2.02450        0.13460
C         -0.74720       -3.03590        0.86540
C         -2.22690       -2.85640        1.18520
H          0.81700        1.77710       -0.14300
H          0.67990       -0.52730       -0.39450
H          0.26930       -0.03160        1.26040
H         -2.14320        0.06660        0.61730
H         -2.85200       -0.35430       -1.71230
H         -1.13500       -0.44610       -2.20270
H         -0.46160       -3.92310        0.31030
H         -0.01370       -2.69960        1.59120
H         -2.50200       -2.38910        2.12560
H         -2.90730       -3.62890        0.84320
