18
gdb 20095	4.33142	1.65563	1.48012	1.5101	72.28	-0.2239	0.0785	0.3024	916.5813	0.154275	-347.746061	-347.738921	-347.737977	-347.777515	27.902
C         -0.15460        1.44620       -0.07640
C          1.23400        0.91740        0.17660
C          0.07430       -0.04170        0.02710
C         -0.39740       -0.78990        1.21390
C         -0.38740       -2.27340        1.41710
C         -1.68370       -1.50280        1.59990
C         -1.59320       -0.69330        2.88350
O         -0.31400       -0.12510        2.48640
H         -0.65760        1.92560        0.75540
H         -0.38490        1.85960       -1.05190
H          1.96480        0.96100       -0.62300
H          1.63940        1.04810        1.17310
H          0.03160       -0.61420       -0.89450
H         -0.34410       -2.86900        0.51000
H          0.13000       -2.69960        2.27330
H         -2.58140       -1.70350        1.03100
H         -2.35250        0.09250        2.96640
H         -1.52290       -1.24100        3.83120
