18
gdb 17681	3.34545	1.56747	1.37902	2.9467	67.73	-0.252	0.0806	0.3326	988.0932	0.151174	-384.903762	-384.895111	-384.894167	-384.9369	31.335
C         -0.33150        1.45810        0.38730
C         -0.15970       -0.03150        0.53940
O          0.88730       -0.66160       -0.21840
C          0.97360       -0.68980        1.21520
C          2.13700        0.06040        1.82650
C          0.76350       -2.05520        1.81370
C         -0.14520       -2.27420        2.94780
O         -0.49940       -2.68470        1.62630
H          0.61990        1.99190        0.42260
H         -0.80740        1.68070       -0.57340
H         -0.98200        1.84830        1.17780
H         -1.08840       -0.60170        0.52590
H          2.33530        0.98940        1.29100
H          1.94320        0.29220        2.87920
H          3.04610       -0.54970        1.78070
H          1.61560       -2.72890        1.70290
H          0.04980       -3.08010        3.65340
H         -0.71740       -1.43540        3.34220
