17
gdb 16526	3.63574	2.38342	1.84525	2.0846	66.41	-0.2179	0.0707	0.2886	758.7435	0.144414	-363.811931	-363.80562	-363.804676	-363.841842	26.174
O         -0.06410        1.32120       -0.01660
C          0.04050       -0.06720       -0.02850
C          1.06820       -0.75300       -0.92850
C          0.32090       -2.06560       -1.30870
N         -0.76650       -2.23570       -0.31730
C         -0.16910       -2.28600        1.07270
C         -0.42510       -0.79810        1.23640
C         -1.23700       -0.84770       -0.04250
H          0.63530        1.67210        0.54490
H          1.27830       -0.12080       -1.79600
H          2.01920       -0.94590       -0.41960
H         -0.13710       -1.97070       -2.29850
H          0.96200       -2.95140       -1.31700
H         -0.78890       -2.90630        1.72710
H          0.86580       -2.64780        1.11470
H         -0.63780       -0.24830        2.14620
H         -2.22010       -0.48050       -0.30750
