20
gdb 16421	3.23682	2.14605	1.78316	1.3359	73.99	-0.2403	0.0819	0.3221	849.0186	0.179296	-348.998665	-348.991496	-348.990551	-349.029937	28.61
C         -0.31660        1.54770        0.05710
C          0.07530        0.07120       -0.00340
O          0.82110       -0.20640       -1.19580
C          2.22660       -0.40110       -1.07790
C          2.63880       -0.88850        0.31130
C          1.50300       -1.78240        0.88520
C          0.80600       -0.43920        1.24530
C          2.22560        0.18360        1.35120
H          0.55670        2.19700        0.16900
H         -0.83310        1.83150       -0.86380
H         -0.99030        1.73310        0.90110
H         -0.84610       -0.52020       -0.11070
H          2.49040       -1.14220       -1.84260
H          2.76750        0.52930       -1.31830
H          3.66790       -1.25660        0.30620
H          0.98430       -2.45760        0.19920
H          1.82450       -2.32880        1.77510
H          0.14750       -0.39600        2.11650
H          2.67100        0.00210        2.33280
H          2.36400        1.23490        1.08280
