19
gdb 10537	2.8895	1.39442	1.05955	1.843	77.93	-0.243	0.0438	0.2869	1177.1711	0.163851	-327.870232	-327.861194	-327.86025	-327.903925	33.373
C         -0.07580        1.58250        0.08910
C         -0.16200        0.05640        0.16530
C          0.89520       -0.55110        1.09660
C          0.83140       -2.07160        1.18210
C          1.18140       -2.73420        2.47560
N         -0.21670       -2.69620        2.03180
C          1.10790       -2.76820       -0.05290
C          1.37100       -3.31740       -1.08960
H          0.90240        1.90610       -0.28400
H         -0.83850        1.98960       -0.58160
H         -0.22060        2.04090        1.07410
H         -1.16120       -0.24180        0.50770
H         -0.04240       -0.37520       -0.83480
H          1.89610       -0.25680        0.75590
H          0.77830       -0.14320        2.10970
H          1.63580       -3.72000        2.46420
H          1.49740       -2.09100        3.29340
H         -0.71680       -1.95970        2.52590
H          1.59090       -3.81630       -2.00080
