18
gdb 17116	4.65217	1.55212	1.46976	2.7941	67.06	-0.2432	0.0825	0.3257	912.6061	0.155925	-384.912006	-384.905187	-384.904243	-384.943033	27.191
O         -0.04150        1.39930       -0.19570
C          0.06440        0.02230        0.11140
C         -1.30960       -0.63550        0.09880
O         -1.96530       -0.34730       -1.17110
C         -2.32070       -1.66630       -1.62940
C         -2.88170       -2.34320       -0.35510
C         -1.39100       -2.17040        0.08650
C         -1.03070       -2.48780       -1.40320
H         -0.57850        1.44450       -0.99660
H          0.74450       -0.49180       -0.58480
H          0.49980       -0.04940        1.11460
H         -1.91300       -0.19960        0.90560
H         -2.85080       -1.59360       -2.57750
H         -3.65260       -1.80290        0.19950
H         -3.16210       -3.38690       -0.50420
H         -0.95860       -2.70740        0.92970
H         -1.14880       -3.54700       -1.63740
H         -0.10330       -2.09920       -1.82650
