18
gdb 18125	3.38935	2.25122	1.74738	2.7831	65.56	-0.2507	0.0687	0.3194	806.6921	0.15743	-384.961347	-384.954728	-384.953784	-384.993142	25.405
C          0.36490        1.19850        0.53440
C          1.38610        1.95940       -0.32180
C          2.17370        0.83250       -1.02430
C          3.47430        0.37240       -0.33100
C          3.01930       -0.81870        0.52280
O          1.95410       -1.41040       -0.21300
C          1.23250       -0.40660       -0.89450
O          0.07600        0.01690       -0.20500
H          0.77140        0.95240        1.52680
H         -0.57450        1.73880        0.68050
H          0.86350        2.56990       -1.06400
H          2.02360        2.62370        0.26750
H          2.35760        1.08060       -2.07030
H          4.19810        0.03540       -1.07880
H          3.94700        1.16200        0.25880
H          3.79220       -1.57970        0.66150
H          2.67900       -0.49700        1.51850
H          0.88820       -0.85450       -1.82970
