15
gdb 8824	2.89851	1.64474	1.0906	2.5378	63.12	-0.2611	0.0021	0.2632	1045.9625	0.118759	-396.014872	-396.0058	-396.004856	-396.049329	30.743
C          0.16390        1.42390        0.13840
N          0.41350       -0.00110        0.00180
C          0.33420       -0.64360       -1.18330
O          0.04460       -0.12350       -2.24520
C          0.56970       -2.19150       -1.16080
N          1.09470       -2.70500       -2.42200
C          1.39720       -2.61710       -0.02960
N          2.03930       -2.88870        0.89270
H          1.06940        1.95440        0.45110
H         -0.15130        1.79910       -0.83530
H         -0.62630        1.61200        0.87210
H          0.72920       -0.51750        0.80840
H         -0.42860       -2.62750       -1.00940
H          0.59760       -2.19900       -3.15420
H          2.06860       -2.42580       -2.51400
