15
gdb 5233	7.43693	1.17005	1.04617	2.923	63.96	-0.2219	0.0119	0.2338	1105.2479	0.119096	-399.821575	-399.814019	-399.813075	-399.854881	26.324
C         -0.01940        1.46570        0.10920
C         -0.03420       -0.02660       -0.15400
O         -1.29890       -0.53900        0.31910
C         -1.52450       -1.83480        0.12510
C         -2.60630       -2.53040       -0.30290
N         -2.32510       -3.89200       -0.21480
C         -1.11960       -3.94590        0.23730
O         -0.55050       -2.73220        0.48060
H          0.92720        1.89400       -0.23280
H         -0.83730        1.96120       -0.42070
H         -0.12620        1.66910        1.17820
H          0.05790       -0.24910       -1.22470
H          0.77980       -0.53470        0.37370
H         -3.55110       -2.15340       -0.65580
H         -0.50800       -4.81170        0.43430
