16
gdb 13101	4.49626	1.29341	1.02389	4.6362	73.53	-0.2411	-0.017	0.2241	1137.5912	0.129911	-379.940889	-379.932749	-379.931805	-379.973995	28.338
C         -0.10440        1.48200        0.06370
N          0.04650        0.04440        0.10810
C         -0.99680       -0.65400       -0.02980
N         -0.99850       -2.03920       -0.00800
C         -2.12410       -2.97690       -0.15220
C         -1.10830       -4.13860        0.01320
C         -0.02860       -3.04440        0.14880
O          1.15300       -3.01320        0.31770
H          0.51560        1.89040       -0.74270
H         -1.14360        1.81800       -0.09020
H          0.26660        1.91810        0.99850
H         -2.00670       -0.24080       -0.18070
H         -2.87010       -2.89210        0.64340
H         -2.61780       -2.92300       -1.12700
H         -1.23420       -4.75260        0.90650
H         -0.98170       -4.78330       -0.85810
