20
gdb 6205	3.69447	1.47318	1.38591	1.6328	78.06	-0.2253	0.025	0.2503	1036.4694	0.175086	-349.028	-349.019073	-349.018128	-349.061077	33.342
C          0.03430        1.51940       -0.03060
C         -0.00610        0.02570       -0.02160
C         -1.03340       -0.78830        0.20140
C         -0.61580       -2.23660        0.11090
C         -0.78560       -2.98470        1.44150
C         -1.32170       -2.98500       -1.02950
O          0.79430       -2.16360       -0.19500
C          1.21920       -0.81290       -0.28740
H          0.74290        1.90150        0.71520
H          0.36980        1.90120       -1.00320
H         -0.94770        1.94900        0.18260
H         -2.05160       -0.48990        0.42230
H         -1.84360       -3.06910        1.71170
H         -0.37010       -3.99400        1.36160
H         -0.26390       -2.45760        2.24470
H         -1.17980       -2.45810       -1.97670
H         -0.91050       -3.99430       -1.12870
H         -2.39660       -3.06940       -0.83690
H          1.64560       -0.61440       -1.28510
H          2.02070       -0.61420        0.44380
