11
gdb 21693	3.52649	2.48595	1.45836	2.1673	55.62	-0.2555	-0.0651	0.1904	758.0383	0.072983	-430.722349	-430.715747	-430.714803	-430.753313	23.868
N          0.02810        1.33150        0.06200
C         -0.04910       -0.00980        0.01790
N         -1.20780       -0.60460        0.00360
O         -1.13430       -2.01330       -0.01140
C          0.04210       -2.61950       -0.01410
N          1.21780       -2.09810       -0.01530
C          1.27530       -0.71720       -0.00900
O          2.30290       -0.07220       -0.02850
H          0.95030        1.72740       -0.02640
H         -0.79570        1.90270       -0.01120
H         -0.09560       -3.69910       -0.01730
