14
gdb 21319	7.22389	1.13886	1.04153	1.2358	59.53	-0.2664	-0.0284	0.238	1099.062	0.107339	-415.840236	-415.832861	-415.831917	-415.872957	24.996
C         -0.10250        1.32580        0.01930
O         -0.00040       -0.08040        0.00640
C          0.66340       -0.56030       -1.13910
C          0.65290       -2.05410       -1.10140
N          1.75470       -2.75020       -1.00760
O          1.30620       -4.07510       -1.01910
C         -0.02360       -4.01170       -1.11700
N         -0.49970       -2.81110       -1.17610
H          0.88780        1.80730        0.01820
H         -0.66970        1.70040       -0.84710
H         -0.62980        1.60140        0.93490
H          0.15330       -0.22270       -2.05650
H          1.70600       -0.21170       -1.18140
H         -0.55980       -4.94910       -1.14030
