18
gdb 15395	3.64056	1.08004	0.89894	2.0897	74.82	-0.2413	0.0499	0.2912	1280.826	0.151951	-347.752005	-347.742987	-347.742043	-347.786062	32.707
O         -0.00060        1.40200        0.01140
C         -0.00530       -0.00320        0.21000
C         -1.34110       -0.53910       -0.29430
C         -1.44510       -2.04090       -0.15710
C         -1.86980       -2.67290        1.13870
C         -2.80000       -2.73620       -0.06530
C         -4.02280       -1.98850       -0.07910
C         -5.05560       -1.37120       -0.10060
H          0.83390        1.74980        0.33870
H          0.82130       -0.48620       -0.33770
H          0.11830       -0.25950        1.27450
H         -2.15110       -0.05270        0.25840
H         -1.46090       -0.24550       -1.34400
H         -0.70830       -2.59860       -0.73070
H         -1.40250       -3.59750        1.45860
H         -2.16880       -2.01260        1.94550
H         -2.86050       -3.70070       -0.56130
H         -5.96570       -0.82510       -0.11750
