16
gdb 14199	3.62291	2.3249	2.10474	2.5561	62.78	-0.2375	0.0698	0.3072	717.1154	0.131938	-383.691659	-383.685621	-383.684677	-383.721383	25.143
O         -0.11690        1.37110        0.06120
C         -0.00400       -0.01150       -0.01050
C          0.37510       -0.77650       -1.31470
C         -0.43110       -1.91920       -0.67730
C         -0.00650       -2.08210        0.84100
C          0.80510       -0.79150        1.05380
O         -1.33320       -1.65220        1.27690
C         -1.32960       -0.90360        0.05690
H          0.76560        1.75260        0.11940
H         -0.14660       -0.37530       -2.18820
H          1.43600       -0.91890       -1.54180
H         -0.80730       -2.78990       -1.20830
H          0.32170       -3.02140        1.28400
H          1.86880       -0.86760        0.80910
H          0.67160       -0.41510        2.06990
H         -2.28300       -0.49120       -0.26840
