9
gdb 3823	9.91946	2.01635	1.67572	4.0224	50.77	-0.2935	-0.0524	0.2411	650.1846	0.058518	-334.429558	-334.424427	-334.423483	-334.458584	17.891
N          0.00420       -1.14140       -0.00360
C         -0.02580        0.01480        0.00310
C         -0.00900        1.43410        0.01070
N         -1.13170        2.16950        0.02920
N         -0.66830        3.40230        0.03010
N          0.65070        3.55670        0.01400
C          1.10000        2.30600        0.00130
H         -1.29170        4.19530        0.04250
H          2.15340        2.08040       -0.01340
