12
gdb 709	7.66602	4.16292	4.02296	1.8604	48.16	-0.2318	0.0634	0.2952	409.078	0.09688	-269.144656	-269.140183	-269.139239	-269.172057	17.954
C          0.00960        1.47540       -0.14220
C          1.32330        0.76360        0.04200
C          0.01530       -0.01760        0.05100
C          0.48630       -0.75620       -1.24520
O          0.75250        0.20660       -2.27550
C          1.73710       -0.00880       -1.25400
H         -0.32290        2.04220        0.72140
H         -0.24920        1.89770       -1.10470
H          1.99770        0.95440        0.86570
H         -0.46420       -0.51590        0.88260
H          0.24130       -1.76560       -1.55250
H          2.73880       -0.27330       -1.57010
