11
gdb 953	6.04892	2.75968	1.89509	2.7383	54.08	-0.2509	-0.0425	0.2084	609.0979	0.081173	-339.482903	-339.477651	-339.476706	-339.51177	19.707
O          0.10120        1.36380        0.13470
C          0.06810        0.01190        0.03990
C          0.08110       -0.69430       -1.16150
N          0.04720       -2.02560       -1.20210
C         -0.00010       -2.65220       -0.02730
N         -0.01670       -2.07960        1.17890
C          0.01740       -0.75050        1.20870
H          0.13440        1.74900       -0.74840
H          0.12010       -0.16730       -2.11590
H         -0.02790       -3.73780       -0.05260
H          0.00480       -0.25800        2.17820
