20
gdb 13069	4.12908	1.11442	0.9642	0.1348	84.39	-0.2362	0.056	0.2922	1289.3479	0.176064	-311.843722	-311.834393	-311.833449	-311.879183	33.125
C          0.32710        1.57410       -0.40770
C          0.19960        0.13930       -0.19400
C          0.10280       -1.04960       -0.01870
C         -0.03130       -2.47450        0.20590
C         -0.14240       -3.01170        1.66900
C         -1.18750       -4.04520        1.17630
C         -1.39590       -3.19820       -0.11380
C         -2.62630       -2.30000       -0.08000
H          1.37860        1.87620       -0.47200
H         -0.16130        1.88390       -1.33860
H         -0.13040        2.14350        0.40930
H          0.77570       -3.00620       -0.31090
H          0.77650       -3.38810        2.12370
H         -0.57840       -2.26250        2.33350
H         -0.73780       -5.01940        0.96490
H         -2.06870       -4.20040        1.80430
H         -1.38150       -3.76440       -1.04970
H         -2.68440       -1.72940        0.85310
H         -2.61250       -1.57940       -0.90340
H         -3.53900       -2.90000       -0.16320
