14
gdb 7030	6.79527	1.07144	0.94222	6.8283	65.31	-0.2432	-0.0153	0.2279	1170.3234	0.107331	-412.061526	-412.053001	-412.052056	-412.095552	28.817
N          0.50100        1.09120       -0.30480
C          0.11710       -0.04570        0.09690
N         -1.21300       -0.45610        0.13940
C         -2.36160        0.35340        0.03250
O         -2.37360        1.54770        0.08360
N         -3.49370       -0.46690       -0.14410
C         -4.83180       -0.08860       -0.06770
N         -5.23810        1.00190        0.42930
H          1.51610        1.15110       -0.24930
H          0.77330       -0.85750        0.43800
H         -1.35880       -1.40560        0.44210
H         -3.32920       -1.38400       -0.52670
H         -5.47180       -0.88120       -0.47750
H         -6.25430        1.04590        0.37840
