19
gdb 1143	4.892	1.76411	1.66978	1.3766	67.58	-0.2514	0.0746	0.3259	856.6259	0.170224	-310.919833	-310.911834	-310.910889	-310.951299	30.706
C          0.07600        1.59150        0.03180
C          0.06450        0.07050        0.02350
C          1.08130       -0.67570       -0.88680
C          1.32140       -1.69870        0.25020
C          0.53720       -2.99760        0.09400
O          2.70250       -1.95930        0.43010
C          0.66730       -0.68600        1.24180
H          1.08390        1.97390        0.22890
H         -0.25210        1.99820       -0.93160
H         -0.58960        1.99140        0.80530
H         -0.95190       -0.28720       -0.17510
H          0.73320       -1.06110       -1.84900
H          1.98700       -0.08320       -1.04500
H          0.93860       -3.58560       -0.73740
H          0.60170       -3.60260        1.00780
H         -0.52360       -2.80650       -0.09700
H          2.79550       -2.60720        1.13730
H          1.44490       -0.09400        1.73360
H         -0.02040       -1.07800        1.99730
