10
gdb 928	6.0484	2.89053	1.95584	2.3383	50.57	-0.2693	-0.0727	0.1966	583.7262	0.06869	-359.369049	-359.363934	-359.36299	-359.398	18.589
O         -0.05630       -0.05150        0.00360
C          0.03790        1.13960        0.00880
O         -1.17340        1.89630        0.02890
C         -1.14780        3.23060        0.03570
N         -0.11090        3.98540        0.02610
C          1.10020        3.32160        0.00650
C          1.21800        1.97390       -0.00230
H         -2.15000        3.65030        0.05120
H          1.97790        3.96080       -0.00170
H          2.17580        1.47060       -0.01770
