19
gdb 6973	2.58328	2.24185	1.67692	1.8291	70.76	-0.2433	0.0282	0.2714	886.9761	0.164953	-365.094861	-365.086515	-365.08557	-365.1277	31.548
C          0.15920        1.59160       -0.25980
C         -0.00460        0.10550        0.06400
N          0.45100       -0.71200       -1.07880
C          1.37420       -1.45560       -0.63220
O          1.72450       -1.40320        0.66910
C          0.79260       -0.45770        1.29990
C          1.63750        0.54260        2.08060
C         -0.11480       -1.26950        2.22270
H          1.20380        1.84700       -0.45860
H         -0.41660        1.82620       -1.15860
H         -0.20540        2.22300        0.55650
H         -1.07330       -0.08940        0.21680
H          1.94540       -2.16550       -1.22200
H          2.32760        1.07930        1.42610
H          1.00260        1.27440        2.58850
H          2.22620        0.01940        2.83970
H          0.46780       -1.78160        2.99380
H         -0.83800       -0.61070        2.71500
H         -0.67020       -2.01980        1.65210
