14
gdb 480	6.30494	3.69329	2.91269	1.8852	53.11	-0.2293	0.0805	0.3098	506.8939	0.119607	-270.388222	-270.382545	-270.381601	-270.416941	21.353
C         -0.02970        1.56540        0.02480
C          0.03180        0.06700        0.01810
C         -0.87320       -0.83520        0.83970
C          0.61440       -0.94640        0.97890
O          1.15640       -1.75610       -0.06770
C          0.70040       -0.79260       -1.05550
H          0.93410        2.00670       -0.25360
H         -0.78350        1.93810       -0.67950
H         -0.29590        1.94390        1.01680
H         -1.38490       -0.33110        1.65470
H         -1.42720       -1.65050        0.38090
H          1.17890       -0.86040        1.90090
H          0.06200       -1.24800       -1.82250
H          1.55680       -0.29980       -1.53240
