14
gdb 13229	6.36974	1.02986	0.99832	5.9315	65.39	-0.2754	0.0018	0.2772	1154.8982	0.107505	-378.723414	-378.715835	-378.714891	-378.757358	25.995
N          0.31610       -1.12180        0.81470
C          0.22590       -0.00790        0.52290
C          0.09320        1.40370        0.14070
N          1.39840        2.06130        0.12570
C          1.81040        2.51100       -0.96990
C          3.05810        3.23440       -1.42290
C          2.37110        3.19760       -2.80390
O          1.22440        2.49970       -2.21850
H         -0.43740        1.45080       -0.81890
H         -0.53730        1.89540        0.89100
H          3.19920        4.22220       -0.98220
H          3.97810        2.65640       -1.32710
H          2.06580        4.15880       -3.22230
H          2.84830        2.58100       -3.56810
