24
gdb 9422	6.0769	0.68925	0.65071	1.4057	82.79	-0.2607	0.0722	0.333	1838.2787	0.221361	-351.421731	-351.410913	-351.409969	-351.457958	38.577
C         -0.01010        1.58460        0.10030
C          0.01030        0.05510        0.03010
C          0.69150       -0.47910       -1.23390
C          0.71280       -2.00850       -1.31640
C          1.45200       -2.54850       -2.54700
O          2.80270       -2.08260       -2.59100
C          1.38710       -4.07830       -2.64410
C          2.05770       -4.63350       -3.90260
H          1.00610        1.99410        0.08540
H         -0.54880        2.01230       -0.75270
H         -0.49880        1.93810        1.01370
H          0.52330       -0.34510        0.91520
H         -1.01810       -0.32760        0.08030
H          0.17910       -0.07770       -2.11960
H          1.72130       -0.10730       -1.28850
H          1.18700       -2.42230       -0.41260
H         -0.31440       -2.39700       -1.32180
H          0.99540       -2.11930       -3.44970
H          3.25230       -2.43180       -1.81260
H          1.86120       -4.50490       -1.74740
H          0.33560       -4.38980       -2.60710
H          1.54470       -4.28630       -4.80640
H          3.09630       -4.29840       -3.96430
H          2.04480       -5.72760       -3.91080
