14
gdb 17761	3.04267	2.73642	1.89346	2.2749	60.64	-0.2163	0.0657	0.282	719.2579	0.105588	-382.409572	-382.403056	-382.402112	-382.439663	26.409
O         -0.13470        1.35320        0.05540
C         -0.01190       -0.00600        0.04130
C          0.92740       -0.99680        0.81870
C          0.81020       -1.99220       -0.32650
C         -0.18750       -2.03750        0.82180
C         -1.11370       -1.03440        0.04440
O         -2.46110       -0.81830        0.06200
C         -0.10260       -1.01670       -1.12070
H          0.58640        1.73310       -0.46020
H          1.71900       -0.85110        1.54290
H          1.51350       -2.74660       -0.65640
H         -0.38510       -2.81530        1.54870
H         -2.89130       -1.51300       -0.45040
H         -0.27020       -0.84040       -2.17500
