14
gdb 13000	2.88712	2.61083	1.61257	1.3182	57.9	-0.2432	-0.0356	0.2075	774.4356	0.106183	-419.66911	-419.662112	-419.661168	-419.70021	26.356
O          0.22230        1.34030       -0.37350
C          0.00720        0.01020       -0.07580
C         -0.49320       -0.96140       -1.14380
C         -1.32690       -0.68900        0.07210
O         -1.27560       -1.65060        1.10410
C          0.05910       -1.76200        1.58520
C          0.83380       -0.57790        1.00930
O          1.86490       -0.09670        1.41680
H          1.05890        1.56880        0.05950
H         -0.79900       -0.46070       -2.05650
H         -0.02550       -1.93150       -1.27660
H         -2.28120       -0.18090        0.00580
H          0.06030       -1.71870        2.67870
H          0.51950       -2.71320        1.28120
