20
gdb 18261	4.1894	1.54779	1.29522	1.4136	74.61	-0.2469	0.0882	0.3352	1017.3814	0.178425	-349.005802	-348.998117	-348.997172	-349.037691	29.745
C          0.04900        1.53300        0.07130
C         -0.01250        0.00420        0.00690
C          0.65740       -0.57020       -1.23650
O          2.03970       -0.19620       -1.23200
C          2.76060       -1.11560       -2.04540
C          2.03680       -2.44280       -1.89910
C          1.65630       -2.82630       -0.49240
C          0.67060       -2.08790       -1.36450
H          1.08650        1.87660        0.07460
H         -0.45040        1.98550       -0.79290
H         -0.44130        1.90960        0.97410
H          0.46340       -0.43080        0.89310
H         -1.05740       -0.33080        0.01230
H          0.16440       -0.15190       -2.13370
H          2.75940       -0.79920       -3.10170
H          3.79660       -1.12110       -1.68950
H          2.17980       -3.20680       -2.65410
H          1.45720       -3.87410       -0.29750
H          2.12390       -2.29290        0.32920
H         -0.22720       -2.58760       -1.70870
