19
gdb 15045	2.30285	1.95679	1.12014	1.156	77.85	-0.2362	0.0467	0.2829	1088.1382	0.163402	-327.859132	-327.850159	-327.849214	-327.892649	33.09
C          0.00390        1.54980        0.00110
C          0.01210        0.02020       -0.03410
C          0.71890       -0.57900       -1.26840
C          0.77300       -2.03920       -1.16680
C          0.81910       -3.23590       -1.06810
N          0.01380       -0.19520       -2.50210
C          0.55780        0.94660       -3.23710
C          0.73150       -0.43750       -3.74990
H          1.02070        1.95750       -0.03680
H         -0.56030        1.96750       -0.83660
H         -0.45980        1.90690        0.92570
H          0.51400       -0.37130        0.85740
H         -1.01270       -0.36450       -0.01800
H          1.76130       -0.20490       -1.28520
H          0.86070       -4.29370       -0.98530
H         -0.17670        1.61530       -3.67670
H          1.43970        1.44240       -2.83490
H          1.72760       -0.87160       -3.68790
H          0.12720       -0.80520       -4.57370
