16
gdb 1672	4.44042	1.61962	1.51846	2.3876	57.15	-0.2424	0.0332	0.2756	864.1732	0.135126	-362.946498	-362.937565	-362.936621	-362.98071	30.391
C         -0.01330        1.68540        0.25130
C         -0.05370        0.16240        0.03800
C          0.76210       -0.57450        1.10410
O          2.11320       -0.15140        0.98850
C         -1.50050       -0.32780        0.09980
N         -2.06570       -0.64140       -1.10180
O         -2.11110       -0.41960        1.14930
H          1.02310        2.02500        0.29700
H         -0.52170        2.21410       -0.56090
H         -0.51170        1.94410        1.19030
H          0.38310       -0.07430       -0.94020
H          0.33960       -0.34470        2.09110
H          0.67390       -1.66170        0.95140
H          2.60200       -0.50700        1.73580
H         -1.57580       -0.53460       -1.97190
H         -3.03550       -0.91240       -1.11810
