18
gdb 8212	2.75715	2.41757	1.58942	2.5495	67.52	-0.2486	0.0812	0.3298	865.7479	0.152621	-384.939056	-384.931046	-384.930102	-384.970927	30.059
C         -0.14670        1.51280        0.02050
C          0.14420        0.03920       -0.00100
C          0.46610       -0.66030       -1.31000
O          0.95560       -1.94820       -0.96250
C          1.47590       -1.91560        0.35930
C          0.78550       -0.75810        1.05920
C          1.28560       -0.26770        2.38810
O         -0.63880       -0.80840        0.85920
H          0.67100        2.07830       -0.43850
H         -1.06180        1.73090       -0.54090
H         -0.28960        1.87010        1.04250
H         -0.41210       -0.79630       -1.95080
H          1.21760       -0.07570       -1.86720
H          1.26780       -2.88460        0.82630
H          2.56700       -1.75330        0.36360
H          2.34740       -0.00570        2.33260
H          0.72500        0.60890        2.71970
H          1.17160       -1.04550        3.15110
