15
gdb 8588	4.79317	1.86937	1.70703	3.1446	66.84	-0.2286	-0.0394	0.1893	779.5937	0.11896	-362.518514	-362.512385	-362.511441	-362.548583	24.631
O         -0.06980       -0.07560       -0.25850
C         -0.03420        1.09100       -0.04120
C         -1.15510        2.19380        0.25870
C          0.02470        2.99150        0.85090
C          1.10080        4.12780        0.93100
N          1.94720        2.85150        1.21470
C          0.75750        2.43600        2.09600
C          1.06060        2.23590        0.05690
H         -1.53500        2.59180       -0.68780
H         -1.99170        1.89310        0.89370
H          1.37050        4.63900        0.00420
H          1.08100        4.81040        1.78480
H          0.68140        3.00290        3.02760
H          0.71920        1.35900        2.28650
H          1.36140        2.58980       -0.93490
