17
gdb 15769	4.64767	1.03192	0.93297	2.8252	73.32	-0.2373	0.0306	0.2679	1282.1385	0.140709	-363.80246	-363.79313	-363.792186	-363.838346	31.852
C         -0.13540        1.42530       -0.08060
C         -0.02980       -0.02600       -0.05010
C          0.06830       -1.22650       -0.03370
C          0.16110       -2.68810        0.00360
O         -1.13370       -3.29450        0.03430
C          0.90880       -3.23680       -1.20830
C          0.65060       -4.61610       -1.67950
N          0.19690       -3.45100       -2.46900
H          0.84480        1.89190        0.06610
H         -0.53040        1.77590       -1.04010
H         -0.79850        1.79350        0.70980
H          0.72320       -2.98030        0.90620
H         -1.72220       -2.69660        0.50420
H          1.90460       -2.81350       -1.31560
H          1.45460       -5.19150       -2.12970
H         -0.09910       -5.19630       -1.15160
H         -0.79690       -3.32070       -2.28640
