18
gdb 10684	2.74993	1.83258	1.33665	5.0145	71.95	-0.2705	0.0235	0.294	979.1211	0.153223	-343.975819	-343.967155	-343.966211	-344.008876	31.919
C         -0.12600        1.55710        0.49770
C         -0.05070        0.09950        0.01270
C          0.98440       -0.69800        0.81550
C         -1.45640       -0.52470        0.01040
C         -1.72310       -1.95450        0.35910
N         -2.14660       -0.88600        1.26880
C         -2.33980        0.08420       -0.97000
N         -3.00530        0.56920       -1.78150
H          0.85070        2.04130        0.40790
H         -0.84640        2.13500       -0.08760
H         -0.43010        1.60670        1.54920
H          0.27720        0.10880       -1.03450
H          0.69380       -0.81760        1.86630
H          1.16200       -1.69040        0.39310
H          1.93820       -0.16300        0.81140
H         -2.53400       -2.47760       -0.13780
H         -0.87440       -2.57350        0.62960
H         -1.48930       -0.80120        2.04120
