17
gdb 18828	3.86857	2.35436	1.79289	1.4796	75.68	-0.2002	-0.0321	0.1681	776.5038	0.142533	-326.608448	-326.601802	-326.600858	-326.63884	26.54
C         -0.21960        1.28850       -0.25350
C         -0.03910       -0.06530        0.35660
C         -1.05270       -0.95060        0.54930
C         -1.70560       -1.39840       -0.76990
N         -0.69260       -2.54770       -0.76610
C          0.68660       -2.23780       -0.10830
C          1.26160       -0.83850        0.17190
C         -0.52290       -2.38010        0.70310
H          0.25080        1.35880       -1.24420
H         -1.27880        1.54480       -0.34620
H          0.25110        2.06440        0.36480
H         -2.69100       -1.87140       -0.71530
H         -1.66340       -0.70810       -1.61820
H          1.34780       -3.07520       -0.31180
H          1.82320       -0.39060       -0.65640
H          1.95670       -0.90710        1.02140
H         -0.79940       -3.14210        1.42350
