17
gdb 16649	3.37117	2.16993	1.4928	3.7031	68.98	-0.2333	0.0309	0.2642	863.1143	0.144112	-363.898236	-363.890988	-363.890043	-363.929631	27.221
C         -0.04440        1.39720       -0.12020
N         -0.01810       -0.04420       -0.08340
C         -1.22780       -0.84180        0.01790
C         -0.72690       -2.28150       -0.02090
C          0.06860       -2.68590       -1.22600
C          0.78330       -2.21930        0.02680
C          1.15270       -0.76050        0.03930
O          2.26470       -0.28200        0.13310
H          0.99040        1.74400       -0.13510
H         -0.56520        1.76470       -1.01310
H         -0.54700        1.81090        0.76440
H         -1.75790       -0.63110        0.95910
H         -1.91960       -0.61490       -0.80520
H         -1.28270       -3.03150        0.52720
H          0.12670       -3.74490       -1.45160
H          0.07690       -2.03670       -2.09630
H          1.40860       -2.90250        0.58520
