15
gdb 20852	3.34397	1.8773	1.30358	0.8655	62.79	-0.2302	0.0038	0.234	923.3586	0.120338	-395.993874	-395.986201	-395.985257	-396.026347	27.69
C          0.08040        1.51970        0.18890
C         -0.14080        0.02240       -0.08590
C          0.65200       -0.48350       -1.24820
N          0.10370       -0.87590       -2.40120
N          1.13710       -1.22810       -3.14970
N          2.34510       -1.10540       -2.58930
C          2.05010       -0.63340       -1.38590
O          2.97770       -0.35040       -0.44990
H          1.13540        1.72650        0.39140
H         -0.22390        2.12330       -0.67150
H         -0.50220        1.84360        1.05670
H          0.12800       -0.55010        0.81030
H         -1.19830       -0.17430       -0.28500
H          1.02320       -1.57890       -4.08510
H          3.84390       -0.55380       -0.82370
