17
gdb 4069	6.68866	0.96283	0.89045	1.7717	68.98	-0.2403	0.0083	0.2487	1259.3462	0.140452	-400.938864	-400.930222	-400.929278	-400.973415	31.014
O          0.10560        1.22200       -0.43410
C          0.01130       -0.13980       -0.04580
C         -1.45400       -0.46190        0.16280
C         -2.33930       -0.46660       -1.12920
C         -2.69320       -1.90470       -0.81320
C         -1.78800       -1.97060        0.40110
N         -3.50150       -2.69390       -1.38400
O         -3.52920       -3.94200       -0.72850
H          1.02880        1.42420       -0.61120
H          0.42600       -0.80610       -0.82140
H          0.56990       -0.33380        0.88480
H         -1.85780        0.19090        0.94020
H         -3.17810        0.23380       -1.13940
H         -1.77010       -0.33000       -2.05420
H         -0.93970       -2.65470        0.28430
H         -2.29200       -2.21750        1.33940
H         -4.17630       -4.42830       -1.25020
