19
gdb 11832	3.70485	1.6566	1.33109	2.3809	72.05	-0.2081	0.0779	0.286	982.0635	0.163972	-365.012004	-365.003675	-365.00273	-365.044476	31.17
C         -0.22760        1.54650        0.10360
C          0.01490        0.03930        0.03360
N          1.14390       -0.44150       -0.81370
C          1.68140        0.35990       -1.88770
C          1.99260       -0.74820        0.35220
C          0.76090       -0.55710        1.23680
C          0.62150       -0.33360        2.67240
O          0.22720       -1.57300        2.06130
H          0.67000        2.09210        0.41160
H         -0.55130        1.94170       -0.86460
H         -1.01920        1.76250        0.82860
H         -0.92430       -0.47780       -0.20170
H          2.09790        1.33330       -1.56830
H          2.48460       -0.19560       -2.38410
H          0.90520        0.55220       -2.63590
H          2.43550       -1.75080        0.34920
H          2.78640       -0.00720        0.54680
H          1.49830       -0.38860        3.31710
H         -0.19520        0.27800        3.05440
