19
gdb 17842	3.72846	1.56479	1.39381	1.6368	70.67	-0.2304	0.0728	0.3032	975.9575	0.165422	-365.009412	-365.001207	-365.000263	-365.042086	30.852
C          0.48550        0.42710       -1.41450
C          0.02270        0.08290        0.00340
O          0.11730        1.21270        0.87130
C         -1.38680       -0.48300       -0.01530
C         -1.76390       -1.90240        0.16550
C         -0.86310       -2.63710        1.15710
C         -1.19180       -1.49800        2.15530
N         -2.15710       -0.84730        1.19260
H          1.49340        0.84880       -1.38780
H          0.49280       -0.46290       -2.05280
H         -0.18240        1.16620       -1.87230
H          0.72230       -0.64320        0.42790
H         -0.64530        1.77790        0.70650
H         -2.04050        0.05680       -0.70280
H         -2.50250       -2.38040       -0.47160
H         -1.28300       -3.59560        1.46700
H          0.17940       -2.79590        0.86450
H         -1.73880       -1.83700        3.03660
H         -0.38100       -0.83770        2.47040
