18
gdb 5221	6.44529	1.06719	0.97414	0.452	74.95	-0.2117	0.0237	0.2354	1233.	0.154526	-347.844401	-347.836471	-347.835527	-347.877396	29.037
C         -0.16650        1.55400        0.06800
C         -0.07710        0.02720        0.02900
C          0.84300       -0.54120        1.12700
C          0.92810       -2.02800        1.12740
C          1.93270       -2.91440        0.88620
C          1.37040       -4.22610        1.03170
C          0.06520       -4.03840        1.34970
O         -0.22240       -2.70920        1.41230
H          0.81790        2.01430       -0.07460
H         -0.82730        1.93290       -0.71760
H         -0.55780        1.90400        1.02980
H         -1.07520       -0.40970        0.14500
H          0.29210       -0.30300       -0.94940
H          1.85690       -0.14450        1.00460
H          0.48660       -0.19180        2.10590
H          2.95250       -2.66460        0.63720
H          1.87400       -5.17300        0.91620
H         -0.75630       -4.70430        1.55620
