16
gdb 11866	5.0836	1.51873	1.29879	3.8465	73.52	-0.2342	-0.0424	0.1918	938.2426	0.131287	-346.630415	-346.623568	-346.622624	-346.661571	26.635
O         -0.00360       -0.01890        0.00300
C         -0.00350        1.19010        0.00920
C         -1.25730        2.08990        0.03230
C         -0.70840        3.51230        0.03290
C         -1.38050        4.65950       -0.70130
C         -1.35970        4.65080        0.79870
C          0.76480        3.37180        0.01160
C          1.16920        2.09250       -0.00130
H         -1.87720        1.86640       -0.84160
H         -1.85230        1.85610        0.92070
H         -0.74790        5.37010       -1.22270
H         -2.31540        4.43870       -1.20510
H         -2.28020        4.42400        1.32560
H         -0.71270        5.35540        1.31050
H          1.41690        4.24000        0.00780
H          2.18780        1.72830       -0.01730
