15
gdb 9194	5.69756	0.96096	0.91692	2.0614	64.58	-0.2583	0.0326	0.291	1265.773	0.116829	-399.800895	-399.791764	-399.79082	-399.836064	30.806
C          0.10310        1.16810       -0.30690
O         -0.10500       -0.11050        0.29870
C         -1.33860       -0.63480        0.09940
O         -2.21660       -0.10430       -0.54390
N         -1.44110       -1.82860        0.75340
C         -2.58730       -2.69850        0.54870
C         -2.24830       -3.94260       -0.14170
C         -1.95310       -4.97290       -0.68470
H          1.12990        1.44430       -0.06530
H         -0.03130        1.11210       -1.39010
H         -0.59390        1.90750        0.09570
H         -0.59730       -2.21790        1.14150
H         -3.06050       -2.93220        1.51110
H         -3.30900       -2.11780       -0.03390
H         -1.70210       -5.87900       -1.17840
