15
gdb 19629	4.91906	1.99734	1.83295	3.0236	63.96	-0.2452	0.0711	0.3163	748.3617	0.120064	-362.569059	-362.563205	-362.562261	-362.598783	23.594
C         -0.06680        1.49770       -0.03500
O          1.11020        0.66490        0.02660
C         -0.15600        0.04050       -0.00020
C         -0.55440       -0.97140        1.03280
C         -1.70220       -1.74720        0.46370
C         -2.03660       -1.20580       -0.91840
C         -0.51100       -1.01930       -1.03560
N         -0.30220       -2.11540        0.07450
H         -0.27100        2.07810        0.86360
H         -0.20760        2.03120       -0.97420
H         -0.25640       -1.02500        2.07290
H         -2.29960       -2.40570        1.08480
H         -2.39540       -2.00710       -1.56930
H         -2.67840       -0.32470       -1.02060
H          0.02840       -1.08750       -1.97740
