15
gdb 1950	8.68697	1.5115	1.416	4.9629	61.78	-0.2491	0.0181	0.2672	857.3534	0.126064	-304.691748	-304.684761	-304.683817	-304.722776	25.318
C         -0.29020        1.47070        0.05060
C          0.04380       -0.01530       -0.00890
C          0.84950       -0.46130       -1.26030
C          2.09440       -0.48910       -0.32460
N          1.18630       -0.45230        0.84170
C          2.97230       -1.65900       -0.39250
N          3.67010       -2.57750       -0.46530
H          0.58360        2.09010       -0.18250
H         -1.08120        1.71970       -0.66510
H         -0.64720        1.74840        1.04870
H         -0.85900       -0.60330        0.18880
H          0.57790       -1.45140       -1.62560
H          0.89740        0.23960       -2.09420
H          2.71840        0.40580       -0.45090
H          1.46030        0.18730        1.58040
