18
gdb 11463	3.12767	1.78092	1.55552	2.1614	63.86	-0.2499	0.0793	0.3292	911.0607	0.153761	-422.078582	-422.070445	-422.069501	-422.111325	29.802
C          0.20900        1.55110        0.27020
C          0.09080        0.06500       -0.05080
C          0.98610       -0.41340       -1.20500
O          2.18640       -0.80100       -0.54800
C          1.80530       -1.30650        0.71840
C          2.90070       -0.93950        1.71900
O          3.27240        0.41710        1.62580
O          0.55850       -0.72380        1.04840
H          1.24980        1.81180        0.47800
H         -0.16280        2.16050       -0.56060
H         -0.37910        1.78820        1.16090
H         -0.95690       -0.20190       -0.23130
H          0.53930       -1.27010       -1.73000
H          1.22780        0.36640       -1.93070
H          1.67980       -2.40330        0.67570
H          2.52360       -1.11420        2.73060
H          3.75770       -1.61180        1.55180
H          3.44000        0.57350        0.68830
