18
gdb 17996	4.37083	1.45679	1.27837	2.9929	71.75	-0.2404	-0.0249	0.2155	985.542	0.154324	-347.783313	-347.775928	-347.774984	-347.815927	27.618
O         -0.11600        0.01500       -0.12980
C          0.00740        1.21440       -0.13480
C          1.31670        1.94500       -0.03040
C          1.53260        3.20100       -0.93560
C          2.03580        4.01890        0.28890
C          0.97790        4.94720        0.92940
C          0.41930        3.73910        1.74320
C          1.58560        2.84120        1.22270
H         -0.88800        1.87320       -0.22720
H          2.11850        1.21220       -0.14750
H          2.25320        3.05130       -1.74180
H          0.61030        3.59640       -1.37560
H          3.06540        4.37390        0.23270
H          1.41790        5.71500        1.57130
H          0.28830        5.43840        0.23630
H          0.43790        3.88370        2.82540
H         -0.58900        3.41750        1.47420
H          2.21970        2.39800        1.99090
