10
gdb 23818	3.33162	2.37445	1.38638	1.4673	55.97	-0.2564	-0.0917	0.1647	767.0525	0.058769	-454.677321	-454.671018	-454.670074	-454.708069	22.923
F          0.00360        0.03470        0.12660
C         -0.00400        1.35510        0.03880
C         -1.16070        2.03270       -0.02700
O         -1.22270        3.37250       -0.11710
N          0.04680        4.11780       -0.14350
N          1.09150        3.49460       -0.08330
C          1.24960        2.06400        0.01430
N          2.40010        1.52870        0.07030
H         -2.13470        1.55610       -0.01290
H          3.12170        2.25110        0.03540
