15
gdb 12718	3.00127	2.29636	1.7598	4.163	61.71	-0.2374	0.0128	0.2502	789.9902	0.11884	-399.796403	-399.789274	-399.78833	-399.82754	26.692
C         -0.09180        1.55580        0.02880
C          0.06230        0.06590        0.07690
O         -1.18600       -0.66090        0.23290
C         -0.65140       -1.47030        1.30370
C          0.74370       -0.83310        1.15880
N          1.57490       -1.38590        0.09330
C          0.97550       -0.68420       -0.94330
O          1.10920       -0.71730       -2.13410
H          0.88640        2.04530        0.00370
H         -0.63260        1.83350       -0.88180
H         -0.65550        1.92090        0.89160
H         -1.15050       -1.24290        2.25340
H         -0.71820       -2.54430        1.09820
H          1.27410       -0.47570        2.04040
H          2.07100       -2.26640        0.05690
