16
gdb 14119	3.93519	1.7659	1.47582	2.4864	64.8	-0.2405	0.0173	0.2578	875.0989	0.131884	-379.910993	-379.903698	-379.902753	-379.942597	27.811
N         -0.14870        1.29600        0.24680
C          0.04980       -0.02810       -0.02920
O          1.13440       -0.53140       -0.25240
C         -1.21350       -0.82860       -0.06670
C         -2.38960       -0.45850       -0.89140
N         -2.51390       -0.33820        0.56660
C         -2.72250       -1.74630        1.07410
C         -1.36810       -2.23790        0.49390
H          0.67060        1.86110        0.40360
H         -1.01090        1.56150        0.69920
H         -2.36190        0.49930       -1.40050
H         -2.94140       -1.24070       -1.41030
H         -2.76350       -1.74370        2.16440
H         -3.63290       -2.21040        0.68190
H         -1.38600       -3.05060       -0.23610
H         -0.62970       -2.47060        1.26160
