17
gdb 12771	3.83663	1.67401	1.31936	2.092	71.96	-0.2467	0.0265	0.2732	974.1481	0.140921	-363.834394	-363.826238	-363.825294	-363.866959	29.582
C          0.03860        1.41450        0.09040
N          0.14500       -0.03400       -0.01450
C          0.56540       -0.68820        0.96260
O          1.01900       -0.25710        2.22130
C          1.42590       -1.61500        2.52690
C          0.22310       -2.48890        2.56880
C          0.86570       -2.13230        1.21870
C          1.33170       -3.13270        0.20430
H          0.55840        1.87270       -0.75770
H         -1.01570        1.70300        0.01160
H          0.44580        1.82650        1.02100
H          2.37790       -1.74990        3.02210
H          0.39030       -3.51910        2.87080
H         -0.73310       -2.06780        2.86370
H          0.50730       -3.43140       -0.45120
H          2.12370       -2.71580       -0.42510
H          1.71660       -4.03420        0.69050
