15
gdb 10042	3.17721	1.36972	0.99705	0.9641	66.29	-0.2623	-0.0069	0.2554	1112.5327	0.118518	-358.855296	-358.8466	-358.845656	-358.889045	29.751
C         -0.21910        1.48930       -0.06380
N          0.11870        0.07170        0.05310
C          0.74230       -0.49000       -1.13520
C          1.20180       -1.94620       -0.85880
C          2.22590       -1.98450        0.18180
N          3.02760       -1.97900        1.01400
C         -0.21680       -0.50560       -2.25440
N         -0.94960       -0.52390       -3.14680
H          0.63580        2.12990       -0.33780
H         -0.99820        1.61970       -0.82080
H         -0.61870        1.83500        0.89220
H          0.75090       -0.06700        0.83560
H          1.62080        0.08550       -1.48260
H          0.33850       -2.53760       -0.53960
H          1.59850       -2.39190       -1.77530
