13
gdb 2475	5.25318	2.74226	2.46999	2.9155	53.03	-0.2334	-0.0197	0.2137	579.4051	0.103092	-344.442225	-344.436972	-344.436028	-344.471156	20.545
O          0.02650        0.05120       -0.02960
C          0.01010        1.24860       -0.00160
C         -1.18680        2.23020        0.02370
C         -0.33430        3.51260        0.02240
C          0.73850        3.26790       -1.06450
C          1.17590        2.25400        0.02160
O          0.67720        3.18560        1.03670
H         -1.84220        2.09820       -0.84170
H         -1.77460        2.12410        0.93850
H         -0.82160        4.47420        0.17520
H          0.43140        2.90350       -2.04850
H          1.44470        4.09500       -1.14240
H          2.18960        1.88980        0.17100
