15
gdb 4854	4.43854	1.5694	1.1754	2.157	65.09	-0.1865	0.0377	0.2243	984.9271	0.11867	-399.81125	-399.803239	-399.802295	-399.845048	28.416
C         -0.20340        1.43070       -0.05610
O         -0.05590        0.01470       -0.01390
C         -1.17680       -0.71720        0.01750
C         -1.33310       -2.06760        0.06160
C         -2.75360       -2.27960        0.07800
C         -3.35670       -1.06680        0.04280
N         -4.69300       -0.67790        0.03930
O         -2.36590       -0.07530        0.00500
H          0.81010        1.83270       -0.07610
H         -0.74590        1.74810       -0.95290
H         -0.73230        1.80250        0.82790
H         -0.54530       -2.80130        0.07960
H         -3.27190       -3.22490        0.11160
H         -4.95170       -0.16160       -0.79580
H         -4.94230       -0.11420        0.84620
