17
gdb 3982	6.28496	0.83233	0.77557	0.7158	74.57	-0.2443	0.0082	0.2525	1428.3168	0.138695	-363.795555	-363.786012	-363.785068	-363.830534	33.577
C         -0.07330        1.52330       -0.02030
C         -0.01650        0.01830       -0.03190
C          0.02320       -0.74730        1.26410
C          1.35470       -0.54080        2.03140
C          1.37230       -1.23350        3.31310
C          1.35800       -1.81450        4.36520
N          0.00380       -0.68460       -1.10010
O         -0.02180        0.12170       -2.25020
H          0.84770        1.95070       -0.43160
H         -0.88820        1.87360       -0.66070
H         -0.21870        1.91080        0.99020
H         -0.80400       -0.42440        1.90780
H         -0.11210       -1.81040        1.05440
H          2.18290       -0.89500        1.40570
H          1.52900        0.53030        2.19420
H          1.35940       -2.32440        5.29640
H         -0.03050       -0.53400       -2.95530
