14
gdb 19539	4.71858	1.73538	1.63179	1.3666	69.19	-0.2305	0.0249	0.2554	812.0074	0.106999	-345.299214	-345.292922	-345.291977	-345.329458	25.06
C         -0.07170       -1.23170       -0.00250
C         -0.03950       -0.02760        0.00450
C          0.01460        1.37930        0.01670
C         -0.75530        2.46810        0.79570
C          0.54910        3.12360        1.24810
C          1.16690        2.47500       -0.01420
O          0.50900        3.16370       -1.11310
C         -0.68050        2.48530       -0.73210
H         -0.10230       -2.29270       -0.01390
H         -1.68380        2.34160        1.33640
H          0.60160        4.21500        1.30290
H          0.92720        2.66780        2.16590
H          2.23280        2.32510       -0.16580
H         -1.52450        2.46770       -1.40810
