15
gdb 20436	4.79151	2.16306	1.54088	3.7191	65.55	-0.2483	0.0194	0.2677	790.6695	0.124049	-358.883099	-358.877178	-358.876233	-358.913257	22.43
C          0.04670        1.51030       -0.04780
C          1.55260        1.89630        0.04530
N          2.10520        0.70000        0.65030
N          3.32190        0.40270        1.15060
C          3.16160       -0.88370        1.45220
N          1.93610       -1.41820        1.16700
C          1.30290       -0.37690        0.65680
C         -0.01970       -0.04860        0.04070
H         -0.48790        1.94530        0.80030
H         -0.41250        1.89650       -0.95910
H          2.00690        2.07220       -0.93630
H          1.73230        2.77490        0.66890
H          3.95940       -1.45730        1.90070
H         -0.86660       -0.39650        0.63610
H         -0.10900       -0.51040       -0.94930
