20
gdb 12814	3.33161	1.91294	1.54287	1.2321	74.28	-0.2443	0.0822	0.3265	914.6736	0.179032	-349.001493	-348.994075	-348.993131	-349.03265	29.673
C         -0.00380        1.52010        0.00200
C         -0.02180        0.00530        0.02150
C         -0.86850       -0.67500        1.06700
C          0.64150       -0.70990        1.18250
C          1.40150       -2.00990        0.92340
O          1.69940       -2.24670       -0.44290
C          0.55790       -2.10980       -1.26600
C          0.12120       -0.64410       -1.34900
H          0.93100        1.89930       -0.42730
H         -0.83010        1.91610       -0.60110
H         -0.10120        1.93410        1.01080
H         -1.42330       -0.04900        1.75830
H         -1.37280       -1.60320        0.81290
H          1.07670       -0.07900        1.95180
H          2.36920       -1.98450        1.43230
H          0.83630       -2.86680        1.32880
H          0.84060       -2.48000       -2.25580
H         -0.26180       -2.75040       -0.89640
H         -0.81490       -0.56140       -1.91720
H          0.88710       -0.09800       -1.91370
