15
gdb 20787	5.01312	1.79314	1.42876	5.3682	67.4	-0.2505	0.0097	0.2602	859.8868	0.121095	-358.807952	-358.801375	-358.800431	-358.838798	24.441
C         -0.21490        1.57610        0.03660
C         -0.02210        0.06530        0.00600
C          0.71710       -0.53330       -1.26220
N          1.73780       -1.00230       -0.30070
N          2.88450       -1.65650       -0.06510
N          3.03590       -1.57800        1.23900
C          2.00170       -0.89030        1.82190
C          1.15300       -0.51690        0.80270
H          0.72270        2.09810       -0.17710
H         -0.96060        1.88760       -0.70180
H         -0.56280        1.89910        1.02230
H         -0.96660       -0.44900        0.20480
H          0.20470       -1.34370       -1.78420
H          1.09780        0.20210       -1.97420
H          1.96850       -0.73470        2.88670
