12
gdb 20774	3.58259	1.96413	1.27867	3.8855	64.1	-0.2756	-0.0597	0.2159	875.5364	0.082493	-377.456628	-377.449496	-377.448552	-377.488238	25.477
C         -0.03710        1.49810       -0.02930
C         -0.01310        0.00950        0.02540
N         -0.02990       -0.74660       -1.03640
O          0.00170       -2.04100       -0.58290
N          0.03850       -2.09760        0.77280
C          0.03070       -0.84740        1.17830
C          0.06090       -0.46580        2.53840
C          0.08550       -0.09100        3.68060
H          0.85120        1.91630        0.45430
H         -0.06940        1.83590       -1.06590
H         -0.91120        1.88950        0.50040
H          0.10780        0.22400        4.69510
