15
gdb 12460	3.7189	1.96982	1.35144	1.8258	64.01	-0.2422	-0.0009	0.2413	868.1287	0.122761	-396.030941	-396.024023	-396.023079	-396.062351	25.757
O         -0.00120       -0.15210       -0.00280
C         -0.04240        1.06370       -0.02250
N         -1.16600        1.78250        0.26100
C         -1.41700        3.16830       -0.10210
C         -0.48830        4.15650        0.60950
N          0.89690        4.15960        0.18490
C          1.50400        3.11940       -0.20450
N          1.11440        1.78900       -0.34940
H         -1.96070        1.18370        0.41960
H         -1.34240        3.31720       -1.18850
H         -2.44950        3.38750        0.18340
H         -0.87990        5.16860        0.45020
H         -0.53590        3.97100        1.69100
H          2.54920        3.23180       -0.50060
H          1.85420        1.14990       -0.60190
