15
gdb 14822	3.32775	1.58225	1.15417	3.9615	69.53	-0.2452	0.0173	0.2625	1005.6162	0.117907	-362.633275	-362.625204	-362.624259	-362.667445	28.051
O          0.04350       -0.04590        0.36340
C          0.06660        1.16700        0.32560
N          1.14820        1.89520       -0.03220
C          2.50460        1.47740       -0.38010
C          2.88650        2.97920       -0.51060
C          1.42880        3.34170       -0.05010
C          0.62130        4.14370       -0.95550
C         -0.03820        4.81610       -1.70210
H         -0.80190        1.80990        0.57420
H          3.00940        0.93070        0.42290
H          2.56160        0.88560       -1.29820
H          3.66790        3.32840        0.16330
H          3.10510        3.30290       -1.52710
H          1.40170        3.78450        0.95400
H         -0.62550        5.40550       -2.36250
