16
gdb 14263	3.253	2.7059	1.88154	1.625	70.52	-0.2209	-0.0468	0.1742	743.1907	0.13355	-346.587754	-346.581809	-346.580865	-346.617413	24.475
C         -0.06360        1.56870       -0.00980
C          1.48190        1.47720        0.00800
O          1.38410        0.11180        0.50340
C          0.01550        0.02260        0.01500
C         -0.04650       -0.63460       -1.34300
C          0.77160       -0.32470       -2.36060
C          1.81170        0.70710       -2.36560
C          2.13300        1.52750       -1.35340
H         -0.45420        1.96690        0.92750
H         -0.54300        2.04790       -0.86360
H          2.01070        2.11350        0.72330
H         -0.62150       -0.49760        0.73580
H         -0.79110       -1.41350       -1.48240
H          0.65660       -0.87430       -3.29140
H          2.35770        0.81340       -3.29950
H          2.91710        2.26520       -1.50010
