16
gdb 8843	4.69831	1.21543	0.98228	2.367	63.19	-0.2501	-0.0324	0.2176	1137.9886	0.129681	-417.102972	-417.093807	-417.092863	-417.13767	30.935
C          0.05660        1.48540        0.02180
N         -0.01820        0.02560       -0.01670
C         -0.05950       -0.66320        1.19940
O         -0.03690       -0.11950        2.27670
C         -0.04900       -0.70600       -1.21340
O         -0.11110       -1.91660       -1.22590
C         -0.00010        0.10650       -2.51460
N         -0.03110       -0.69500       -3.72290
H          0.97240        1.85000       -0.45110
H         -0.80620        1.94140       -0.47090
H          0.05980        1.77130        1.07310
H         -0.11380       -1.74800        1.04760
H         -0.84050        0.81190       -2.52380
H          0.90470        0.72700       -2.51210
H          0.74150       -1.35530       -3.69840
H         -0.86270       -1.27970       -3.70710
