14
gdb 20806	3.34288	1.82303	1.26687	2.9056	60.84	-0.2385	-0.0368	0.2017	931.97	0.106397	-415.842913	-415.835311	-415.834367	-415.875509	26.974
C         -0.27760        1.60920       -0.06550
C          0.04780        0.10830        0.03330
C          0.80870       -0.40790       -1.13570
C          2.05480       -0.93670       -1.29630
O          3.00070       -1.15920       -0.36500
N          2.22470       -1.23050       -2.61870
N          1.17980       -0.91960       -3.26910
O          0.24890       -0.38970       -2.36050
H          0.63760        2.20550       -0.12260
H         -0.87580        1.81970       -0.95590
H         -0.84360        1.93270        0.81230
H          0.64410       -0.09480        0.92800
H         -0.88320       -0.46270        0.13600
H          3.76140       -1.55140       -0.81030
