16
gdb 7432	3.3864	1.6957	1.14617	0.7723	64.33	-0.236	-0.031	0.205	1012.0369	0.129667	-417.119409	-417.110231	-417.109287	-417.154422	31.539
C          0.39680        1.26040        0.08680
N          0.06630       -0.15300       -0.04830
C          0.09880       -0.90350        1.20210
C         -0.23080       -0.62230       -1.28490
O         -0.23200        0.09140       -2.28520
C         -0.59230       -2.12830       -1.49090
N         -0.84540       -2.34610       -2.79750
O         -0.64560       -2.99120       -0.63140
H          1.40580        1.37170        0.50160
H          0.34690        1.73320       -0.89120
H         -0.30910        1.74700        0.77050
H         -0.15670       -1.94260        1.02600
H          1.10120       -0.83590        1.64350
H         -0.61010       -0.46060        1.91300
H         -0.77460       -1.56610       -3.43190
H         -1.09530       -3.27060       -3.10260
