18
gdb 15053	2.82158	1.59643	1.09099	0.803	74.41	-0.2607	0.0387	0.2994	1108.7916	0.151339	-347.739861	-347.730904	-347.72996	-347.773626	32.368
C          0.12610        1.35930       -0.03370
O         -0.16700        0.00160       -0.28960
C          0.71190       -0.61580       -1.21770
C          2.09020       -0.69190       -0.70550
C          3.21140       -0.75830       -0.27680
C          0.16020       -1.99090       -1.52600
C         -0.94540       -2.13280       -2.53650
C          0.44290       -2.62380       -2.86280
H          1.11970        1.48690        0.41660
H          0.08050        1.96270       -0.95430
H         -0.63300        1.72090        0.66360
H          0.72690       -0.02630       -2.15260
H          4.20380       -0.81910        0.09670
H          0.13360       -2.64620       -0.66180
H         -1.72240       -2.86290       -2.34110
H         -1.29630       -1.23240       -3.02980
H          1.02770       -2.05700       -3.58000
H          0.62530       -3.69180       -2.89150
