16
gdb 13444	3.9121	1.22106	1.10344	4.7096	61.64	-0.2383	-0.0133	0.225	1078.1703	0.128195	-420.852638	-420.844091	-420.843147	-420.886474	30.377
O         -0.27760        1.30790       -0.26080
C         -0.13230       -0.07050       -0.10270
C         -0.34120       -0.63200        1.28260
O         -0.73490        0.30510        2.25560
C         -1.35730       -0.92360        0.20170
C         -2.74550       -0.30980        0.23540
C         -3.23850        0.00010       -1.16470
O         -4.27550       -0.39980       -1.62890
H         -0.47450        1.66030        0.61870
H          0.64300       -0.47750       -0.74450
H          0.27300       -1.44860        1.65480
H          0.05200        0.57460        2.74180
H         -1.32380       -1.93820       -0.18630
H         -3.46380       -0.97210        0.72660
H         -2.71930        0.63140        0.79530
H         -2.54850        0.64500       -1.75160
