16
gdb 5527	3.25822	1.81233	1.25307	1.8383	67.69	-0.1965	0.0125	0.2089	970.5498	0.131599	-379.959584	-379.951609	-379.950665	-379.992449	28.693
C         -0.32270        1.59140       -0.09110
C          0.04190        0.09970        0.01850
C          0.83470       -0.41770       -1.12700
C          2.10140       -0.89070       -1.29830
N          3.11930       -1.10290       -0.36800
N          2.29090       -1.24930       -2.62680
C          1.15730       -0.98080       -3.19050
O          0.22360       -0.47360       -2.37130
H          0.57640        2.21360       -0.13900
H         -0.90780        1.77970       -0.99580
H         -0.91650        1.91120        0.77070
H          0.62090       -0.07980        0.93150
H         -0.87910       -0.48880        0.12570
H          3.18350       -0.38370        0.33940
H          4.01000       -1.21900       -0.83320
H          0.88340       -1.11470       -4.22540
