14
gdb 16222	3.20011	2.41171	1.57347	2.9075	58.	-0.2602	0.0007	0.2609	790.2252	0.107595	-419.697978	-419.691287	-419.690343	-419.729036	24.738
O          0.01560       -0.01610        0.04230
C          0.04530        1.17290        0.16360
O         -1.06420        1.95510        0.30150
C         -0.65650        3.32240        0.28510
O          0.72400        3.35470        0.56880
C          1.21860        2.09560        0.19260
C          2.57040        1.65000        0.64310
C          2.33280        1.94520       -0.81930
H         -0.87640        3.74040       -0.70870
H         -1.19720        3.86840        1.06200
H          3.14330        2.37010        1.21570
H          2.66340        0.61540        0.95360
H          2.26950        1.11480       -1.51330
H          2.73900        2.86790       -1.21740
