12
gdb 21822	5.99368	1.51607	1.21001	5.9285	60.77	-0.24	-0.0293	0.2107	904.9003	0.084718	-414.668956	-414.662293	-414.661348	-414.700814	23.473
O         -0.27940       -0.01730        0.00260
C         -0.08400        1.16770        0.00850
N          1.15230        1.79440        0.00160
C          2.41020        1.22140       -0.01280
C          3.64260        1.81420       -0.01860
C          4.51730        0.70050       -0.03390
N          3.88430       -0.44600       -0.03720
O          2.51830       -0.10730       -0.02350
H         -0.88920        1.92790        0.01990
H          1.14320        2.80310        0.00810
H          3.88020        2.86410       -0.01280
H          5.59830        0.69610       -0.04270
