22
gdb 10331	2.37622	1.55943	1.01606	2.7243	78.97	-0.2434	-0.0175	0.2259	1226.8609	0.197085	-350.228141	-350.217713	-350.216768	-350.264123	36.775
C         -0.00310        1.61780       -0.03560
C         -0.00780        0.08540        0.01270
C         -1.42580       -0.53080        0.01900
C         -2.10740       -0.14710       -1.28060
O         -3.06070        0.57930       -1.39490
C         -1.43480       -2.07680        0.16080
C         -0.71380       -2.56090        1.42700
C         -2.87360       -2.61860        0.13760
H          1.02110        2.00260       -0.02440
H         -0.49500        2.00200       -0.93450
H         -0.52880        2.03910        0.82780
H          0.55330       -0.31710       -0.84210
H          0.52610       -0.24390        0.90860
H         -2.01130       -0.08770        0.83470
H         -1.62380       -0.59930       -2.18270
H         -0.90230       -2.48960       -0.70920
H         -1.15580       -2.11360        2.32520
H         -0.80570       -3.64780        1.52100
H          0.35270       -2.32340        1.42170
H         -3.44540       -2.23920        0.99240
H         -3.41230       -2.32840       -0.76970
H         -2.87710       -3.71160        0.19240
