14
gdb 639	6.45091	2.82383	2.41929	1.5413	49.27	-0.265	0.0859	0.351	573.6363	0.118887	-307.545457	-307.539022	-307.538078	-307.57526	23.351
C         -0.07790        1.53370        0.12620
C          0.02350        0.01110       -0.01140
O          0.75980       -0.56050        1.05540
C         -1.35770       -0.62370       -0.09560
C         -1.59510       -2.00680        0.32370
O         -1.95140       -0.90680        1.17940
H          0.92080        1.96540        0.22770
H         -0.56410        1.98020       -0.74800
H         -0.66240        1.79970        1.01380
H          0.57600       -0.23470       -0.92740
H          0.15410       -0.57660        1.80950
H         -2.04110       -0.17500       -0.81750
H         -2.43790       -2.55880       -0.08760
H         -0.75440       -2.60150        0.67120
