12
gdb 4315	4.23426	1.91035	1.31669	4.8832	60.77	-0.2316	-0.0423	0.1893	839.1723	0.085375	-414.731149	-414.72449	-414.723546	-414.761903	24.772
N          0.04610        1.35550        0.08670
C         -0.03270        0.00440        0.03110
C         -1.21430       -0.69710        0.01650
C         -1.21910       -2.11920       -0.01030
O         -2.12460       -2.90210       -0.02460
O          0.11800       -2.69150       -0.02430
C          1.17890       -1.90290       -0.01370
N          1.20440       -0.62010        0.01270
H          0.95000        1.77470       -0.04990
H         -0.77240        1.92300       -0.04440
H         -2.17730       -0.20350        0.02880
H          2.10920       -2.46620       -0.03130
