14
gdb 6664	7.89066	0.81794	0.74817	5.5083	59.04	-0.2825	0.0264	0.3089	1391.3475	0.106578	-415.918145	-415.909448	-415.908504	-415.952899	29.19
N         -0.17710        1.30030        0.10780
C          0.06840       -0.03810        0.03820
O          1.15630       -0.56010        0.02270
O         -1.11100       -0.72270        0.02040
C         -0.97150       -2.14410       -0.00510
C         -2.39790       -2.70140        0.01940
C         -2.40990       -4.16090       -0.01010
N         -2.40750       -5.31580       -0.03430
H          0.60480        1.91070       -0.05410
H         -1.10270        1.64520       -0.07890
H         -0.43780       -2.45710       -0.90680
H         -0.39600       -2.48400        0.86010
H         -2.91420       -2.35500        0.92090
H         -2.95850       -2.31990       -0.84060
