17
gdb 1468	6.68658	1.27117	1.15043	1.7586	66.12	-0.259	0.0538	0.3128	1022.2116	0.145683	-309.684327	-309.675583	-309.674639	-309.717268	31.13
C         -0.06030        1.57880        0.05710
C         -0.03810        0.04850        0.00690
C         -1.45200       -0.53400        0.01590
O         -2.09080       -0.13370        1.21790
C          0.72910       -0.48280       -1.22720
C          2.13830       -0.11020       -1.24170
C          3.30030        0.19790       -1.23520
H          0.95470        1.98260        0.09510
H         -0.55350        1.98950       -0.83310
H         -0.61100        1.92140        0.93540
H          0.46970       -0.32520        0.90480
H         -2.00390       -0.17240       -0.86880
H         -1.40020       -1.63290       -0.05640
H         -2.99850       -0.44970        1.19790
H          0.64920       -1.57740       -1.26380
H          0.24610       -0.11100       -2.14170
H          4.32740        0.46660       -1.23860
