10
gdb 3904	6.11904	2.84995	1.94436	1.0953	51.07	-0.2632	-0.0857	0.1775	584.2627	0.069139	-355.497046	-355.491966	-355.491022	-355.525927	18.61
O         -0.04260       -0.09150        0.00330
C          0.03780        1.11840        0.00870
N         -1.12320        1.92220        0.02820
N         -1.22530        3.25660        0.03670
N         -0.15700        3.95330        0.02630
C          1.06200        3.30270        0.00690
C          1.21760        1.95710       -0.00230
H         -2.01560        1.44200        0.03740
H          1.91300        3.97540       -0.00080
H          2.18980        1.48040       -0.01770
