16
gdb 12183	3.76032	1.44507	1.20355	2.7316	72.15	-0.2379	-0.0245	0.2134	1027.576	0.128125	-346.582139	-346.573813	-346.572869	-346.615126	30.303
C          0.08150        1.63910       -0.06030
C          0.08840        0.11810       -0.00730
C          0.67690       -0.71420       -1.18880
C          1.42800       -1.65140       -0.17820
C          2.79590       -2.03850       -0.42520
C          3.94550       -2.32700       -0.62680
C          1.12800       -0.56020        0.89910
O          1.62020       -0.28260        1.94930
H          1.06820        2.02600       -0.33410
H         -0.64320        2.00490       -0.79420
H         -0.18110        2.05540        0.91660
H         -0.90630       -0.26060        0.26270
H         -0.03550       -1.20500       -1.85180
H          1.38500       -0.13210       -1.78210
H          0.80960       -2.52910        0.05090
H          4.96000       -2.58830       -0.80040
