19
gdb 1696	3.85499	1.86051	1.3574	1.8458	64.16	-0.2497	0.0751	0.3248	932.3201	0.168591	-348.048744	-348.03948	-348.038536	-348.082288	32.797
C          0.01970        1.39210       -0.13660
O         -0.03320        0.01310        0.14220
C         -1.32400       -0.57230        0.04220
C         -1.78930       -0.71610       -1.40720
C         -1.23770       -1.93700        0.75460
C         -0.75590       -1.81650        2.19750
O         -2.48700       -2.61850        0.67460
H          1.03810        1.72500        0.07990
H         -0.20410        1.62160       -1.18810
H         -0.67990        1.96140        0.49610
H         -2.04870        0.05330        0.59820
H         -2.72350       -1.28040       -1.43890
H         -1.95540        0.25580       -1.88000
H         -1.03550       -1.25800       -1.98800
H         -0.53760       -2.56360        0.18860
H         -1.44890       -1.19870        2.78470
H         -0.70370       -2.80550        2.66080
H          0.22770       -1.34530        2.23880
H         -3.09100       -2.18980        1.29130
