16
gdb 9014	4.34135	0.93422	0.80415	2.719	70.05	-0.2526	-0.0382	0.2144	1391.5795	0.12726	-383.726395	-383.716989	-383.716045	-383.762665	31.648
C          0.21380        1.03400        1.05200
C          0.00070       -0.13460        0.20980
C         -0.16210       -1.09500       -0.49870
C         -0.39380       -2.26440       -1.33690
C         -1.57880       -3.14350       -0.85260
O         -1.84220       -4.15240       -1.78330
C         -1.28940       -3.74510        0.50880
O         -1.33110       -4.93970        0.68700
H          1.07120        0.89400        1.71940
H          0.40560        1.92780        0.44830
H         -0.66250        1.23930        1.67660
H         -0.62800       -1.96370       -2.36420
H          0.50390       -2.89210       -1.39610
H         -2.45330       -2.48070       -0.72940
H         -1.79150       -4.98470       -1.28560
H         -1.03680       -3.03650        1.31940
