19
gdb 10177	3.38465	1.14018	0.90307	4.473	72.92	-0.2693	0.0365	0.3058	1319.2987	0.163689	-365.073139	-365.063366	-365.062422	-365.108289	33.361
C         -0.04120        1.56210        0.03280
C          0.01830        0.03430       -0.01550
C          0.73320       -0.51850       -1.26940
C          0.85750       -2.04820       -1.22690
O          1.64760       -2.45800       -2.31230
C          1.75030       -3.85940       -2.42600
C          0.04510       -0.09770       -2.49510
N         -0.52610        0.24950       -3.43790
H          0.96370        1.99790        0.02990
H         -0.58430        1.96450       -0.82720
H         -0.54900        1.89900        0.94090
H          0.55280       -0.34700        0.86220
H         -0.99490       -0.38180        0.02630
H          1.75130       -0.11090       -1.31120
H          1.31880       -2.34050       -0.26850
H         -0.14340       -2.50870       -1.26760
H          2.22030       -4.30740       -1.53640
H          0.76480       -4.32800       -2.56970
H          2.37290       -4.06830       -3.29850
