20
gdb 7814	3.00196	1.69822	1.16346	1.9675	77.63	-0.2333	0.0195	0.2528	1069.7648	0.178018	-349.030781	-349.022585	-349.021641	-349.062986	31.726
C         -0.02400        1.54070        0.04540
C         -0.02750        0.03820       -0.03260
C         -0.08730       -0.61650       -1.19620
C         -0.04830       -2.11650       -1.34800
O          0.73880       -2.49810       -2.47740
C          0.42760       -2.79730       -0.05950
C         -0.27390       -2.19300        1.16060
C          0.04420       -0.69660        1.28880
H          0.86700        1.90530        0.57360
H         -0.04300        1.99930       -0.94670
H         -0.88960        1.90990        0.61050
H         -0.15550       -0.06310       -2.13120
H         -1.05320       -2.48520       -1.59820
H          1.61450       -2.11490       -2.35330
H          0.25990       -3.87660       -0.12770
H          1.51300       -2.64750        0.03030
H         -1.35870       -2.32450        1.05470
H          0.01620       -2.72110        2.07510
H          1.04960       -0.55910        1.71620
H         -0.63880       -0.22220        2.00600
