15
gdb 2656	18.06148	0.77455	0.75311	0.1173	84.47	-0.2254	0.0015	0.2269	1516.5701	0.123048	-271.351786	-271.343016	-271.342072	-271.387292	28.915
C         -0.04600        1.55640        0.05830
C          0.01060        0.01810       -0.01300
C          0.68790       -0.47540       -1.20320
C          1.25430       -0.86940       -2.19860
C          1.89030       -1.31230       -3.31660
C          2.45630       -1.70600       -4.31150
C          3.13530       -2.17830       -5.50490
H          0.96090        1.98180        0.06590
H         -0.57930        1.96540       -0.80390
H         -0.56330        1.87410        0.96830
H          0.51680       -0.37210        0.87990
H         -1.00900       -0.38830        0.01820
H          3.16490       -3.27340       -5.53780
H          2.62890       -1.83270       -6.41350
H          4.16940       -1.81710       -5.54330
