17
gdb 16283	3.20356	1.82142	1.43672	1.7911	75.68	-0.2322	0.0194	0.2515	927.8233	0.141368	-326.649692	-326.641928	-326.640984	-326.681381	29.889
C         -0.03590        1.62270       -0.02100
C          0.06020        0.10470        0.03840
C          1.09730       -0.66170       -0.82650
N          1.66040       -1.40030        0.36020
C          2.20200       -0.35700        1.23600
C          0.73000       -0.55410        1.25840
C          0.02790       -1.06610        2.38750
C         -0.59950       -1.46230        3.33520
H          0.93920        2.09960        0.12050
H         -0.42690        1.94820       -0.99100
H         -0.71040        2.00060        0.75460
H         -0.93110       -0.33380       -0.10120
H          0.65790       -1.36520       -1.53530
H          1.84630       -0.05180       -1.34450
H          2.75530       -0.75350        2.08120
H          2.62450        0.54370        0.79410
H         -1.14370       -1.82230        4.17290
