18
gdb 14106	3.062	1.69977	1.45784	1.4162	68.24	-0.2471	0.0759	0.323	939.8072	0.153064	-384.904806	-384.896711	-384.895766	-384.937035	31.
O         -0.17840        1.37650       -0.22100
C         -0.10450       -0.00860       -0.04320
C         -0.52080       -0.63170        1.26920
C         -1.40330       -0.74460        0.05690
C         -2.77310       -0.11700       -0.21950
C         -2.95040       -1.13830       -1.38280
C         -1.76920       -1.96790       -0.79950
O         -0.80920       -2.52480       -1.66200
H          0.52650        1.78100        0.29510
H          0.70390       -0.50120       -0.58610
H          0.01430       -1.51200        1.61310
H         -0.84820        0.04530        2.05270
H         -3.48480       -0.27810        0.59540
H         -2.76810        0.94170       -0.48310
H         -3.91490       -1.64020       -1.48480
H         -2.67800       -0.70130       -2.34910
H         -2.12410       -2.79940       -0.18170
H         -0.50330       -1.82380       -2.24820
