20
gdb 8881	3.62888	1.08255	0.97654	3.0215	71.93	-0.2611	-0.023	0.2381	1284.5736	0.174404	-386.165699	-386.155785	-386.15484	-386.201274	34.907
C         -0.04260        1.43350        0.21390
C         -0.19130       -0.08640        0.10610
C         -1.62700       -0.55820       -0.23920
C         -2.07480       -0.13690       -1.64660
C         -1.66240       -2.07210       -0.10850
O         -1.17430       -2.81500       -0.93610
C         -2.31730       -2.67490        1.12490
O         -2.19710       -4.06370        1.14440
H          0.97780        1.69850        0.50720
H         -0.25090        1.93430       -0.73590
H         -0.72290        1.84670        0.96680
H          0.49140       -0.48390       -0.65370
H          0.11220       -0.54070        1.05800
H         -2.31310       -0.13550        0.50740
H         -1.42320       -0.58840       -2.39930
H         -3.09860       -0.46630       -1.84910
H         -2.04650        0.94920       -1.76120
H         -1.86310       -2.21780        2.02030
H         -3.37500       -2.35580        1.12680
H         -1.74890       -4.28310        0.31070
