10
gdb 829	5.28606	2.80689	2.77246	2.7647	32.38	-0.2571	0.0697	0.3268	506.0529	0.070118	-432.85289	-432.846825	-432.845881	-432.882725	20.798
N         -0.04180        1.48950        0.02470
C         -0.02390        0.03500        0.00340
C          0.82220       -0.48860        1.15210
F          0.32410       -0.16720        2.34780
F          0.91340       -1.82730        1.09240
F          2.07290        0.00520        1.08710
H          0.87140        1.85160       -0.22870
H         -0.70380        1.84020       -0.65770
H         -1.03890       -0.34450        0.15260
H          0.37440       -0.42840       -0.91340
