13
gdb 20655	3.42573	2.30692	1.39027	4.9975	63.4	-0.266	-0.0817	0.1843	827.4227	0.095415	-398.61434	-398.607544	-398.606599	-398.645405	24.862
C         -0.02430        1.51710       -0.01400
C         -0.05480        0.02260        0.00330
C         -1.15790       -0.74050       -0.14720
C         -1.03600       -2.16820       -0.10830
N          0.06770       -2.81310        0.06230
O          1.20980       -2.04620        0.21800
C          1.23110       -0.65760        0.20230
O          2.29210       -0.11150        0.35120
H          0.64240        1.87460       -0.80560
H         -1.02190        1.93420       -0.16640
H          0.38880        1.90000        0.92500
H         -2.13720       -0.29670       -0.29740
H         -1.90520       -2.80800       -0.22580
