16
gdb 16354	2.60566	2.2985	1.42665	5.1054	66.11	-0.2383	0.0241	0.2623	890.0045	0.130539	-379.912841	-379.905023	-379.904079	-379.945135	28.687
C         -0.05120        1.57400       -0.02160
C          0.04670        0.05680        0.03030
N          1.12350       -0.54150       -0.77620
C          1.77220       -1.18050        0.26150
O          2.74100       -1.88640        0.31550
C          0.75730       -0.59170        1.24460
C          0.95760       -0.06450        2.61110
N          0.18640       -1.29960        2.38100
H          0.91580        2.03350        0.20160
H         -0.37500        1.91280       -1.01140
H         -0.78680        1.93660        0.70480
H         -0.93060       -0.40130       -0.17360
H          1.28450       -0.55150       -1.77160
H          1.91460       -0.21150        3.10290
H          0.42930        0.84520        2.88660
H         -0.81180       -1.11000        2.44300
