17
gdb 10053	3.35353	1.23801	0.9708	5.1091	69.34	-0.2643	-0.0398	0.2245	1188.4571	0.139834	-363.891699	-363.882414	-363.88147	-363.926713	31.501
C          0.01820        1.56390        0.04390
C         -0.01560        0.03820       -0.07420
C          0.74560       -0.50520       -1.30800
C          0.89200       -2.04010       -1.21140
C          1.65420       -2.61760       -2.31730
N          2.25720       -3.05900       -3.19850
C         -0.01730       -0.11380       -2.56460
O          0.21540        0.85940       -3.23000
H          1.04530        1.92520        0.15790
H         -0.40390        2.04760       -0.84110
H         -0.55300        1.89290        0.91660
H          0.42510       -0.41280        0.82320
H         -1.05540       -0.31510       -0.11110
H          1.73400       -0.03850       -1.36130
H          1.38630       -2.30380       -0.27040
H         -0.09840       -2.51170       -1.18730
H         -0.87240       -0.78930       -2.80940
