13
gdb 20508	9.13471	1.00251	0.90849	3.0951	72.17	-0.2474	-0.0284	0.219	1217.5867	0.095322	-361.435477	-361.428064	-361.42712	-361.46876	25.449
C         -0.01990        1.46790        0.01050
C         -0.00270        0.01440        0.00280
C          0.02590       -1.19030       -0.00380
C          0.02070       -2.60710       -0.01110
N          1.14910       -3.29860       -0.02200
O          0.76900       -4.62990       -0.02650
C         -0.57050       -4.71090       -0.01840
C         -1.11870       -3.47330       -0.00840
H          0.99810        1.87130        0.00300
H         -0.54390        1.86140       -0.86750
H         -0.52710        1.85210        0.90230
H         -0.98090       -5.70860       -0.02100
H         -2.15820       -3.19490       -0.00020
