15
gdb 16218	3.11538	2.33802	1.50994	4.2156	61.63	-0.2407	0.0107	0.2514	823.6555	0.120352	-399.820583	-399.813638	-399.812694	-399.851928	25.865
O          0.02450       -0.02840        0.03700
C          0.01030        1.18110        0.08510
N         -1.08730        1.99550        0.12140
C         -0.80930        3.42220        0.02550
C          0.69490        3.50950        0.38780
C          1.21480        2.11160        0.11040
C          2.55380        1.59400        0.38870
O          2.15570        1.90270       -0.94890
H         -2.00890        1.60680       -0.00210
H         -1.00080        3.80030       -0.98730
H         -1.43350        3.99260        0.71970
H          1.22690        4.26220       -0.19590
H          0.80880        3.75070        1.44910
H          3.30140        2.25830        0.82060
H          2.66500        0.53300        0.60360
