18
gdb 16914	3.69904	1.78344	1.38227	2.5348	66.75	-0.2603	0.0741	0.3345	913.2889	0.155459	-384.937954	-384.930784	-384.929839	-384.96913	28.236
O         -0.16080        1.45130        0.13120
C          0.02300        0.04520        0.03460
C          0.78560       -0.53140        1.23200
C          1.02850       -2.03620        1.04700
C         -0.25280       -2.77530        0.72930
O         -1.37980       -2.46070        1.54910
C         -1.41300       -2.05880        0.17020
C         -1.37720       -0.56440       -0.09230
H          0.70730        1.86000        0.20830
H          0.59300       -0.19820       -0.87970
H          1.74620       -0.01290        1.34190
H          0.20940       -0.35080        2.14490
H          1.73620       -2.20900        0.22460
H          1.48540       -2.46590        1.94620
H         -0.14370       -3.83850        0.50850
H         -2.12790       -2.62780       -0.42430
H         -2.03430       -0.06440        0.62860
H         -1.77880       -0.35230       -1.08810
