15
gdb 3722	6.81263	1.88376	1.63246	1.928	62.54	-0.2393	0.0281	0.2674	781.2499	0.127347	-304.72872	-304.722039	-304.721095	-304.760046	24.219
C          0.06430        1.44450       -0.36730
C         -0.08080        0.06580        0.29850
C         -1.44420       -0.53340        0.12140
N         -2.29540       -0.59670        1.14540
N         -3.40810       -1.15860        0.63180
C         -3.29320       -1.45760       -0.68400
C         -2.02720       -1.06480       -1.05710
H          1.07220        1.84520       -0.21990
H         -0.12080        1.38620       -1.44480
H         -0.65150        2.15620        0.05520
H          0.67440       -0.61540       -0.11260
H          0.11590        0.14980        1.37150
H         -4.19610       -1.31800        1.23540
H         -4.09870       -1.91730       -1.23490
H         -1.58340       -1.15080       -2.03600
