17
gdb 21032	3.74914	1.78686	1.23817	2.8923	71.47	-0.2385	0.0187	0.2572	993.7005	0.14234	-360.092552	-360.083851	-360.082907	-360.126775	29.694
C         -0.12590        1.39930       -0.06240
N         -0.04490       -0.04170        0.02090
N         -0.14400       -0.79330       -1.10890
C         -0.02770       -2.02920       -0.64780
C         -0.07610       -3.22520       -1.53820
N          0.13940       -2.11150        0.70510
C          0.12420       -0.84720        1.09590
C          0.27040       -0.37230        2.50340
H         -0.02650        1.82340        0.93750
H          0.67460        1.78700       -0.69840
H         -1.08780        1.70020       -0.48630
H          0.85000       -3.80370       -1.46100
H         -0.89700       -3.88970       -1.25050
H         -0.21620       -2.91710       -2.57570
H          1.14570        0.27430        2.62880
H         -0.60850        0.18810        2.84010
H          0.39090       -1.24350        3.14770
