13
gdb 15851	2.68967	2.14849	1.34407	4.4689	58.59	-0.2978	-0.0199	0.2779	876.324	0.095079	-398.639262	-398.631896	-398.630952	-398.671272	25.94
C         -0.27570        1.51010       -0.03470
C          0.07770        0.04360       -0.00510
O          1.30020       -0.24920       -0.77520
C          1.97060       -0.71940        0.31180
O          3.08090       -1.12060        0.39050
C          0.75710       -0.54450        1.26670
C          0.93350        0.31130        2.42170
N          1.06620        1.00920        3.33320
H          0.54200        2.12330        0.35260
H         -0.49110        1.81840       -1.06130
H         -1.16490        1.69390        0.57570
H         -0.73290       -0.58500       -0.38010
H          0.35440       -1.51380        1.57160
