12
gdb 1834	5.90514	2.25692	1.6663	1.8411	51.44	-0.2595	-0.0191	0.2404	686.2081	0.091851	-360.602876	-360.596931	-360.595987	-360.633206	21.343
O         -0.01340       -0.03830        0.00350
C         -0.04440        1.16480        0.01020
C         -1.27280        2.07520        0.03190
C         -0.72000        3.51030        0.03170
C          0.80170        3.36130        0.01010
O          1.63180        4.23270        0.00330
N          1.07080        1.99640       -0.00070
H         -1.89260        1.84620       -0.83870
H         -1.86830        1.83720        0.91690
H         -1.02600        4.09560       -0.83920
H         -1.00200        4.08670        0.91650
H          2.01360        1.63330       -0.01550
