12
gdb 11199	6.57421	1.31737	1.10494	2.0775	57.91	-0.2627	-0.0942	0.1685	968.427	0.083617	-414.706037	-414.6991	-414.698156	-414.737642	24.385
O         -0.08330       -0.01150       -0.00140
C          0.00770        1.18460        0.00610
C          1.31100        1.92430       -0.00180
N          2.46610        1.37130       -0.01910
C          3.43400        2.46700       -0.02010
C          2.63130        3.77590       -0.00110
O          2.99600        4.92210        0.00580
N          1.31170        3.31880        0.01010
H         -0.88910        1.84420        0.01970
H          4.09440        2.40170        0.85190
H          4.07620        2.41620       -0.90660
H          0.50830        3.92680        0.02490
