17
gdb 6001	2.72969	1.76164	1.43216	5.7915	68.46	-0.2635	-0.0324	0.2311	956.7517	0.138816	-363.901158	-363.891724	-363.890779	-363.935253	33.366
C          0.20040        1.50620        0.03660
C         -0.10670        0.02030        0.04850
O         -0.44280       -0.55270        1.05330
C         -0.00880       -0.74080       -1.30570
C         -1.33380       -0.49190       -2.07610
C          1.20320       -0.29600       -2.15520
C          0.10930       -2.18030       -1.02980
N          0.22230       -3.31920       -0.87510
H          1.28190        1.65990       -0.04940
H         -0.26570        2.02020       -0.80890
H         -0.14390        1.94230        0.97460
H         -1.44760        0.57190       -2.30150
H         -1.32540       -1.04350       -3.01960
H         -2.19260       -0.82270       -1.48780
H          2.14270       -0.44320       -1.61610
H          1.24680       -0.88230       -3.07650
H          1.11490        0.75840       -2.42750
