15
gdb 17091	4.84529	1.65632	1.57676	5.1338	64.54	-0.2682	0.0289	0.2971	830.909	0.121256	-362.654541	-362.6483	-362.647356	-362.684982	24.236
N         -0.02050       -1.13500       -0.10120
C          0.00050        0.01870       -0.03320
C          0.02470        1.47300        0.03470
C         -0.42860        2.06330        1.42090
C          0.88260        2.80730        1.74780
C          1.24130        3.53570        0.43340
C          1.47270        2.06020        0.04780
O          1.89210        1.80230        1.41290
H         -0.56230        1.86980       -0.79830
H         -1.29620        2.72060        1.33300
H         -0.64180        1.28190        2.15040
H          1.00000        3.24800        2.73660
H          0.47790        4.11980       -0.08700
H          2.18230        4.07940        0.51150
H          2.16880        1.72080       -0.71730
