19
gdb 7373	2.94372	1.60267	1.14388	5.1641	69.29	-0.2411	0.016	0.2571	1082.8779	0.164153	-402.227647	-402.218123	-402.217179	-402.262565	33.385
C          0.01180        1.53300        0.03600
N         -0.09410        0.08470       -0.00580
C         -0.12610       -0.60590        1.29300
C         -1.51630       -1.07620        1.73810
O         -1.93520       -2.26750        1.12230
C         -0.13210       -0.65820       -1.14650
C          0.07340        0.04290       -2.47920
O         -0.32070       -1.87320       -1.11190
H         -0.07750        1.96080       -0.96040
H         -0.79020        1.95390        0.65350
H          0.97160        1.85030        0.46480
H          0.53880       -1.47410        1.24350
H          0.27910        0.09340        2.03110
H         -1.48590       -1.25100        2.82280
H         -2.23580       -0.25360        1.56970
H         -1.47640       -2.32800        0.26710
H          0.98840        0.64190       -2.49890
H          0.12950       -0.73020       -3.24440
H         -0.76710        0.70420       -2.71380
