22
gdb 6476	3.9141	1.22681	1.15029	1.2887	78.35	-0.2509	0.0695	0.3204	1184.8659	0.198614	-350.206871	-350.197498	-350.196553	-350.240464	35.65
C         -0.14290        1.55140       -0.02650
C          0.07770        0.03490       -0.05560
C          0.73330       -0.51390        1.20960
O          2.03410        0.03800        1.40460
C         -0.09150       -0.51330        2.53520
C          0.46680       -1.93230        2.84490
C         -0.47170       -2.97210        3.43530
C          0.87240       -2.05100        1.34800
H          0.80760        2.09200        0.04190
H         -0.64260        1.89530       -0.93680
H         -0.76490        1.84950        0.82520
H         -0.88340       -0.47330       -0.20040
H          0.71010       -0.23110       -0.91180
H          1.92870        0.96940        1.62480
H          0.12510        0.28740        3.24860
H         -1.17020       -0.53470        2.34520
H          1.36680       -1.84550        3.46040
H         -1.38000       -3.07360        2.82940
H          0.00550       -3.95750        3.48480
H         -0.77950       -2.70150        4.45190
H          0.11480       -2.58020        0.76070
H          1.85960       -2.45390        1.11270
