12
gdb 20472	6.45738	1.42455	1.25847	2.7188	56.18	-0.2705	-0.0462	0.2243	896.8345	0.083745	-414.604787	-414.598453	-414.597509	-414.636006	22.513
C          0.90560        1.10500       -0.01260
O          0.21170        0.14750       -0.81300
C         -0.41940        0.59460        0.38620
C         -0.57540       -0.43150        1.43340
C         -0.11110       -1.70780        1.49940
O         -0.51810       -2.25490        2.64080
N         -1.28580       -1.25380        3.31420
N         -1.29730       -0.22680        2.58970
H          1.79100        0.73400        0.50010
H          0.98720        2.10210       -0.44160
H         -1.28190        1.24520        0.24880
H          0.47510       -2.31320        0.82910
