13
gdb 14818	2.79273	2.00691	1.35332	4.6027	58.37	-0.2785	-0.0515	0.227	874.6571	0.094434	-398.585807	-398.578298	-398.577353	-398.618777	25.361
O         -0.59530        0.69980       -0.56460
C          0.31510        0.79530        0.21490
C          1.38990        1.85840        0.11960
C          1.07760        3.07610       -0.76450
O          1.10250        3.96600        0.38380
C          1.46080        2.90600        1.27850
C          0.51530        2.73800        2.38770
N         -0.21940        2.58180        3.26580
H          0.43300        0.08710        1.06260
H          2.34990        1.36490       -0.05690
H          1.84560        3.34420       -1.49590
H          0.09460        3.04430       -1.24110
H          2.46540        3.04510        1.69620
