20
gdb 17110	4.58821	1.50501	1.43045	1.5022	74.56	-0.2347	0.0947	0.3295	980.308	0.178852	-348.989908	-348.982635	-348.981691	-349.021345	28.895
C         -0.04440        1.54360        0.10520
C          0.10360        0.02770       -0.05860
C          0.75300       -0.62690        1.15460
O         -0.02340       -0.39860        2.36400
C         -0.20450       -1.73520        2.86060
C          1.19540       -2.37640        2.69050
C          0.82680       -2.16480        1.18650
C         -0.63360       -2.53310        1.60670
H          0.93140        2.02490        0.23550
H         -0.52330        1.99130       -0.77070
H         -0.65050        1.77360        0.98550
H         -0.87830       -0.42170       -0.24230
H          0.72400       -0.19680       -0.93670
H          1.75230       -0.18920        1.29780
H         -0.76250       -1.70730        3.79530
H          2.04840       -1.82720        3.09700
H          1.23250       -3.42850        2.97780
H          1.35400       -2.66030        0.37190
H         -0.75290       -3.60150        1.79430
H         -1.47170       -2.14580        1.02480
