20
gdb 11789	3.95207	1.69834	1.56659	1.414	74.44	-0.2334	0.0868	0.3202	927.8238	0.178385	-348.993932	-348.986523	-348.985579	-349.025401	29.434
C          0.05310        1.54510        0.05470
C         -0.07620        0.02250       -0.06950
C          0.72810       -0.55230       -1.20650
C          2.27640       -0.46790       -1.34930
C          1.98910       -1.52680       -2.45770
C          0.87240       -2.06870       -1.51310
C          1.14010       -0.68370       -3.41590
O          0.26950       -0.02250       -2.47370
H          1.08810        1.83930        0.25910
H         -0.25720        2.03290       -0.87260
H         -0.56870        1.92510        0.87060
H          0.24420       -0.46320        0.85990
H         -1.12750       -0.25110       -0.22250
H          2.70250        0.49330       -1.64780
H          2.81120       -0.88450       -0.49370
H          2.76330       -2.16130       -2.88700
H          1.26850       -2.64310       -0.67350
H          0.00990       -2.57040       -1.96000
H          1.72120        0.05660       -3.97940
H          0.54950       -1.28270       -4.11970
