20
gdb 7011	2.38706	1.96218	1.52573	2.2769	71.02	-0.2396	0.0677	0.3073	972.0963	0.174217	-386.135933	-386.126622	-386.125678	-386.169143	34.858
C         -1.03700        1.04640       -1.09720
C         -0.05170       -0.05250       -0.75980
O          1.28170        0.22100       -1.24930
C          1.87780       -0.31730       -0.04540
C          3.07350        0.47880        0.43060
C          0.50870       -0.27480        0.68090
C          0.29690        0.86300        1.66800
O          0.21080       -1.52570        1.27040
H         -0.71080        2.01620       -0.71240
H         -1.13820        1.13220       -2.18390
H         -2.02660        0.81790       -0.68610
H         -0.41230       -1.01770       -1.14730
H          2.16060       -1.37000       -0.19440
H          2.82060        1.52880        0.59980
H          3.46950        0.05510        1.35940
H          3.86640        0.43980       -0.32290
H          0.57540        1.83030        1.24370
H         -0.75790        0.92600        1.96360
H          0.89410        0.69630        2.56960
H         -0.59790       -1.43580        1.78520
