17
gdb 20241	3.26376	3.09736	2.5291	1.6339	68.87	-0.2201	0.0912	0.3113	662.0808	0.146968	-326.714006	-326.708822	-326.707878	-326.742848	22.739
C         -0.02670        1.55530       -0.13220
C          1.42300        1.97700        0.06660
C          2.11260        1.39630        1.27590
C          1.26710        0.43890        2.10240
N          0.68720       -0.54520        1.17100
C          0.00140        0.04040        0.00440
C          1.40890       -0.44870       -0.11640
C          2.32140        0.76020       -0.08480
H         -0.70670        2.02590        0.58930
H         -0.37980        1.82810       -1.13360
H          1.74450        2.94940       -0.29010
H          2.90210        1.96610        1.75460
H          1.88440       -0.09940        2.83030
H          0.46420        0.93940        2.65650
H         -0.85550       -0.53170       -0.34210
H          1.70470       -1.36930       -0.60640
H          3.26560        0.77560       -0.61180
