12
gdb 4227	5.02314	1.46124	1.43864	2.0437	39.74	-0.2805	0.0665	0.347	827.7717	0.085733	-492.022084	-492.014746	-492.013802	-492.054335	24.942
O         -0.08080        1.46120        0.01060
C          0.04280        0.04940        0.00210
C         -1.37440       -0.51480        0.01230
C         -1.40230       -2.02620        0.00430
F         -0.77600       -2.54250        1.07690
F         -2.66010       -2.49050        0.01380
F         -0.79670       -2.53070       -1.08550
H          0.80310        1.84000        0.00560
H          0.57360       -0.30730       -0.89250
H          0.59000       -0.31650        0.88300
H         -1.90660       -0.17070        0.90330
H         -1.92310       -0.16100       -0.86480
