17
gdb 18151	3.20606	2.02236	1.59038	2.8425	68.34	-0.2379	-0.0256	0.2123	851.4182	0.14114	-363.815329	-363.807627	-363.806683	-363.847608	28.231
C          0.05720        1.61380       -0.22160
N          0.26560        0.18640       -0.04050
C          1.49340       -0.49830       -0.34980
C          2.75540        0.30560        0.03360
C          2.22680        0.34140        1.51130
C          2.10550        1.64940        2.24840
O          1.10620        2.04720        2.79200
C          0.96000       -0.41760        1.06650
H          0.95240        2.23990       -0.10130
H         -0.33310        1.77830       -1.23100
H         -0.68600        1.95490        0.50270
H          1.47380       -1.32300       -1.05420
H          3.67480       -0.27330       -0.06620
H          2.89160        1.26610       -0.47230
H          2.87000       -0.30030        2.12800
H          3.04950        2.24460        2.28050
H          0.43940       -1.15850        1.66280
