15
gdb 20928	5.829	1.28533	1.14488	1.3408	65.28	-0.2141	-0.0179	0.1962	1034.1947	0.119284	-392.127201	-392.119197	-392.118252	-392.160435	27.871
C         -0.09220        1.46580       -0.24770
C         -0.06390       -0.00920        0.17290
N         -1.38370       -0.61930        0.14250
C         -1.75900       -1.18650       -0.92890
N         -1.17690       -1.40480       -2.17590
N         -1.99260       -2.12170       -3.00800
N         -3.06800       -2.36150       -2.38720
N         -2.97850       -1.81160       -1.14950
H          0.89970        1.91970       -0.15040
H         -0.41760        1.57740       -1.28790
H         -0.79240        2.02370        0.38050
H          0.67110       -0.55490       -0.44700
H          0.30920       -0.07700        1.20100
H         -0.26410       -1.13440       -2.49310
H         -3.72440       -1.91870       -0.48490
