15
gdb 5737	3.93917	2.06956	1.38063	1.4328	69.19	-0.1808	0.0544	0.2351	857.1815	0.120425	-362.654437	-362.647394	-362.64645	-362.68696	26.065
O          0.04380        1.40500       -0.10710
C          0.05110        0.04020       -0.02560
C          0.11290       -0.83830       -1.08420
C          0.23390       -1.31910       -2.51840
C          0.22590       -2.76720       -1.88740
N          0.09720       -2.10950       -0.57810
C          0.03450       -2.11570        0.77840
C         -0.00280       -0.77440        1.15020
H         -0.00560        1.75840        0.78550
H         -0.61360       -1.10920       -3.17700
H          1.15930       -1.06230       -3.04160
H         -0.62840       -3.39600       -2.15460
H          1.15300       -3.33510       -2.00870
H          0.00970       -3.01370        1.37340
H         -0.06940       -0.40950        2.16580
