18
gdb 11999	3.28313	2.03646	1.79558	1.8054	71.64	-0.2447	0.0021	0.2468	837.3811	0.153415	-347.797052	-347.789592	-347.788648	-347.828104	29.502
C         -0.04120        1.56120        0.04980
C         -0.00660        0.02360        0.00280
C         -1.43240       -0.55510       -0.02300
C          0.80790       -0.48640       -1.18090
C          1.81200       -1.29000       -0.82350
C          1.87520       -1.39250        0.66490
O          2.12330       -0.11650        1.30830
C          0.77490       -0.56650        1.18730
H          0.97090        1.96080        0.14590
H         -0.49320        1.97040       -0.86020
H         -0.63390        1.91080        0.90210
H         -1.97200       -0.22380       -0.91630
H         -1.41630       -1.64950       -0.02690
H         -2.00070       -0.22270        0.85350
H          0.57800       -0.17850       -2.19630
H          2.51610       -1.77240       -1.49020
H          2.29290       -2.25240        1.17940
H          0.26210       -0.77020        2.12540
