18
gdb 8545	3.97598	2.24937	1.86254	1.6221	70.79	-0.2334	0.0804	0.3137	783.576	0.154763	-347.764905	-347.758374	-347.75743	-347.795036	26.855
C          0.07160        1.52860        0.08650
C         -0.06210        0.03700       -0.04350
C          0.47190       -0.70700       -1.29720
C         -0.64600       -1.77090       -1.13140
C         -0.36770       -2.74650        0.04400
C         -0.72430       -1.61720        1.03810
O          0.34910       -0.65940        1.16600
C         -1.37500       -0.80640       -0.11620
H          1.12490        1.80360        0.21520
H         -0.30590        2.03350       -0.80830
H         -0.48200        1.89310        0.95690
H          0.30920       -0.10770       -2.19950
H          1.51350       -1.03930       -1.26460
H         -1.10350       -2.17360       -2.03450
H         -1.12440       -3.53780        0.07870
H          0.62810       -3.19040        0.13070
H         -1.16950       -1.86350        2.00430
H         -2.39350       -0.43020       -0.17100
