16
gdb 7087	5.27315	0.78848	0.69474	2.1369	72.28	-0.2555	-0.0463	0.2092	1580.6028	0.126924	-383.727882	-383.717933	-383.716988	-383.766445	32.298
C          0.08560        1.44100        0.00870
C          0.03380       -0.01070        0.00090
C         -0.02830       -1.21610       -0.00480
C         -0.08500       -2.66430       -0.01160
O         -1.14100       -3.26580       -0.00470
C          1.25810       -3.36850       -0.02790
C          1.13660       -4.88520       -0.03540
O          2.45780       -5.40780       -0.05040
H          1.11740        1.80700        0.00130
H         -0.42730        1.85150       -0.86780
H         -0.41120        1.84140        0.89910
H          1.82470       -3.02750       -0.90390
H          1.84050       -3.03740        0.84160
H          0.57750       -5.21560        0.85140
H          0.56130       -5.20560       -0.91540
H          2.39730       -6.36740       -0.05460
