19
gdb 4771	5.41812	1.18738	1.05593	1.6867	79.98	-0.1898	0.0512	0.241	1188.3876	0.166056	-327.978773	-327.970106	-327.969162	-328.012337	31.712
C          0.20710        1.52950        0.25170
C         -0.10580        0.05700       -0.07290
C          0.56240       -0.44710       -1.31340
C          0.05330       -0.76100       -2.55430
C          1.13080       -1.17450       -3.39650
C          1.04140       -1.61160       -4.82780
C          2.27210       -1.09800       -2.63270
N          1.92060       -0.65700       -1.37770
H          1.28000        1.68550        0.40720
H         -0.10430        2.18110       -0.57010
H         -0.31140        1.84940        1.16130
H          0.17150       -0.56780        0.78780
H         -1.18630       -0.06500       -0.19880
H         -0.98950       -0.70200       -2.83210
H          0.63210       -0.82310       -5.47080
H          2.02690       -1.87770       -5.22190
H          0.39210       -2.48740       -4.94670
H          3.29810       -1.32420       -2.87760
H          2.56000       -0.52010       -0.61470
