16
gdb 565	8.33933	2.2348	1.94718	1.9413	56.22	-0.2416	0.0778	0.3194	675.7455	0.143134	-271.614305	-271.607578	-271.606634	-271.645328	23.307
C          0.04700        1.51740       -0.12070
C         -0.00660        0.00110        0.09090
C         -1.42750       -0.54940        0.09990
C         -2.17360       -0.63460       -1.25340
O         -2.32430       -2.06360       -1.13640
C         -1.59880       -2.08540        0.10940
H          1.07850        1.88200       -0.12970
H         -0.41320        1.80230       -1.07340
H         -0.48780        2.04680        0.67570
H          0.56820       -0.50410       -0.69670
H          0.48300       -0.25600        1.03940
H         -2.01710       -0.05150        0.87590
H         -3.14260       -0.12390       -1.31240
H         -1.57430       -0.35620       -2.13210
H         -0.66270       -2.65560        0.03010
H         -2.19890       -2.50450        0.92670
