18
gdb 16887	3.93198	1.83615	1.43618	1.0932	73.93	-0.2152	0.0209	0.2361	914.0588	0.154761	-347.795453	-347.7882	-347.787256	-347.82662	28.421
C          0.00370        1.51310       -0.05270
C         -0.01020        0.01440        0.03340
C         -1.11690       -0.72690       -0.07250
C         -1.07830       -2.20580       -0.01530
C         -0.17160       -2.94970       -1.00820
C          0.24130       -2.78590        0.42460
O          1.25930       -1.93510        0.85360
C          1.32860       -0.65850        0.23190
H          0.66360        1.86480       -0.85730
H         -0.99700        1.91010       -0.24350
H          0.37980        1.96260        0.87570
H         -2.08350       -0.24680       -0.20460
H         -1.99160       -2.70470        0.29130
H         -0.47160       -3.93930       -1.33660
H          0.30450       -2.34630       -1.77260
H          0.23430       -3.66660        1.05730
H          1.86470       -0.73190       -0.73130
H          1.96190       -0.05320        0.89100
