18
gdb 17315	2.67664	2.42935	1.68978	1.901	71.36	-0.2218	0.0629	0.2847	855.4741	0.152284	-347.724148	-347.716421	-347.715477	-347.75569	29.841
C         -0.04960        1.63080       -0.06550
C          0.18830        0.13300        0.03500
C          1.45230       -0.67850       -0.16800
C          2.70580       -0.16140        0.59560
O          2.41090        1.06530        1.27850
C          1.98920       -0.17220        1.86440
C          0.69330       -0.72130        1.17190
C         -0.07130       -1.85370        1.79560
H         -0.10770        1.92310       -1.12050
H         -1.01350        1.88060        0.39330
H          0.72860        2.21510        0.41450
H         -0.62810       -0.41150       -0.44570
H          1.52030       -1.46430       -0.91120
H          3.74230       -0.36280        0.35310
H          2.31060       -0.38670        2.87750
H         -0.67050       -1.51010        2.64840
H         -0.75490       -2.31140        1.07340
H          0.60060       -2.63990        2.16150
