16
gdb 688	6.26967	3.38781	2.82139	0.2782	59.74	-0.2504	0.0931	0.3435	545.883	0.143977	-234.470813	-234.465	-234.464056	-234.49964	22.557
C         -0.09980        1.57890        0.03840
C          0.07010        0.06450        0.03090
C          1.14890       -0.58680       -0.90750
C          1.75760       -1.29460        0.30970
C          2.20390       -0.27830        1.32070
C          0.74120       -0.62050        1.23420
H          0.84730        2.09170        0.23510
H         -0.47560        1.93710       -0.92680
H         -0.81280        1.89100        0.80980
H         -0.89930       -0.40590       -0.16300
H          0.71020       -1.26500       -1.64280
H          1.81750        0.10630       -1.43080
H          2.11840       -2.31580        0.32660
H          2.71470       -0.67800        2.19110
H          2.57740        0.69120        0.99860
H          0.21280       -1.03760        2.08400
