14
gdb 4744	7.12441	1.26208	1.07357	3.7217	71.84	-0.1972	-0.0403	0.1569	1027.7607	0.108962	-378.771882	-378.764602	-378.763658	-378.803302	26.993
N         -0.03400        1.44550        0.15460
C          0.01080        0.04610        0.04590
C         -1.08350       -0.81690        0.02320
N         -0.61460       -2.09560       -0.00630
C          0.75460       -2.09140       -0.00580
C          1.48650       -3.33440       -0.04100
O          0.95600       -4.43190       -0.07380
C          1.16920       -0.76140        0.02810
H          0.76840        1.89310       -0.26840
H         -0.87780        1.84590       -0.23400
H         -2.14020       -0.60060        0.03210
H         -1.14890       -2.94860       -0.03270
H          2.59100       -3.22280       -0.03640
H          2.19460       -0.42220        0.04270
