13
gdb 20667	3.44641	1.99392	1.27307	6.2987	66.27	-0.2629	-0.0278	0.2351	885.6444	0.097532	-357.686524	-357.679372	-357.678427	-357.718595	25.242
C         -0.03450        1.52560        0.02620
C         -0.01080        0.03100       -0.00790
C         -0.02560       -0.80900       -1.09990
N          0.00960       -2.08020       -0.61970
N          0.04610       -2.14940        0.71070
C          0.03440       -0.86660        1.09600
C          0.06500       -0.51130        2.47270
N          0.08720       -0.16410        3.57670
H          0.86320        1.92870        0.50660
H         -0.09090        1.94110       -0.98300
H         -0.89430        1.89820        0.59270
H         -0.05780       -0.60030       -2.15750
H          0.01000       -2.93790       -1.14720
