18
gdb 17402	4.21752	1.64077	1.54942	1.4951	72.17	-0.2236	0.0803	0.3039	912.3458	0.152994	-347.74419	-347.736761	-347.735817	-347.775597	29.009
C         -0.08180        1.49760        0.08770
C         -0.00370       -0.01280        0.03850
C          1.34760       -0.70220       -0.14790
C          0.63080       -0.76960        1.15940
O          1.16280       -0.10810        2.32590
C          0.84000       -1.26150        3.11410
C         -0.63490       -1.51000        3.13380
C          0.19660       -1.97760        1.95070
H          0.74900        1.91060        0.66620
H         -0.04850        1.92940       -0.91840
H         -1.01020        1.82850        0.56550
H         -0.84980       -0.50430       -0.43690
H          1.40340       -1.59670       -0.76040
H          2.22690       -0.06680       -0.18710
H          1.55340       -1.57130        3.86790
H         -0.96530       -2.30470        3.79600
H         -1.32180       -0.67500        3.03060
H          0.26050       -3.00770        1.62780
