13
gdb 3620	4.75686	3.8272	3.02601	2.1074	51.73	-0.2181	0.074	0.2921	507.0227	0.10356	-344.39515	-344.390394	-344.38945	-344.423409	19.179
C         -0.01170        1.53560        0.05180
O          1.35990        1.95600        0.01450
C          2.11810        0.86200       -0.44140
C          2.01150       -0.44380        0.33060
O          0.83660       -0.42050        1.14030
C          0.06800        0.01880       -0.02610
C          1.26510       -0.25420       -0.96920
H         -0.45660        1.87280        0.99250
H         -0.57250        1.96300       -0.79420
H          3.05420        1.14010       -0.91000
H          2.82950       -1.09050        0.62690
H         -0.86900       -0.52620       -0.14160
H          1.28070       -0.73760       -1.93590
