16
gdb 10913	3.33617	2.01827	1.55631	2.3122	59.97	-0.2493	0.0667	0.3161	845.6243	0.129195	-420.837124	-420.829447	-420.828503	-420.868708	29.198
C         -0.19130        1.48860        0.11770
C          0.14490        0.04080       -0.01830
O         -0.69420       -0.91140        0.67600
C          0.72200       -0.94130        0.92720
C          1.27060       -1.81460       -0.21140
O          0.61220       -3.04900       -0.37840
C          0.77590       -0.70020       -1.21690
O         -0.04130       -1.13460       -2.25900
H          0.65570        2.10960       -0.19060
H         -1.04450        1.74280       -0.51990
H         -0.45020        1.73150        1.15160
H          1.04900       -0.83820        1.95580
H          2.34640       -1.99400       -0.21690
H         -0.27930       -2.90710       -0.02580
H          1.61890       -0.11800       -1.61180
H         -0.17440       -2.08140       -2.10510
