13
gdb 5199	7.47808	1.18272	1.06018	5.5795	61.4	-0.2224	0.0046	0.227	1033.5764	0.096396	-398.647816	-398.640869	-398.639925	-398.679885	24.892
O          0.40260       -0.09970       -0.17820
C          0.52010        1.07090       -0.36980
O          0.48310        1.97730        0.64060
C          0.70100        3.30170        0.31090
C         -0.20230        4.31240        0.53920
N          0.40490        5.47510        0.13750
C          1.66160        5.21610       -0.33970
C          1.88390        3.86090       -0.24270
H          0.66630        1.55030       -1.35470
H         -1.19510        4.29150        0.95490
H         -0.01440        6.38640        0.19220
H          2.29430        6.00910       -0.70320
H          2.78380        3.33290       -0.51510
