16
gdb 8570	4.24166	2.01646	1.73668	4.173	63.92	-0.2343	0.0518	0.2861	779.2226	0.13425	-379.95253	-379.946242	-379.945298	-379.982601	25.67
O          0.00060       -0.01620       -0.19760
C         -0.01470        1.17820        0.02730
N         -1.17460        1.92380        0.18520
C         -1.09040        3.38260        0.14420
C         -0.04720        3.82470       -0.92970
C          1.00450        3.40910        0.14650
C         -0.04960        3.82600        1.21050
N          1.12560        1.95290        0.18770
H         -2.00460        1.46530       -0.15450
H         -2.09270        3.81100        0.14770
H         -0.03950        3.29690       -1.88600
H         -0.06070        4.90540       -1.08580
H          1.99560        3.86280        0.15210
H         -0.06340        4.90640        1.36500
H         -0.04390        3.29340        2.16250
H          1.96760        1.51550       -0.15010
