18
gdb 8062	3.60981	1.56969	1.33689	1.6009	68.13	-0.2348	0.0683	0.303	977.5789	0.152605	-384.87054	-384.8625	-384.861555	-384.902861	30.357
C          0.05730        1.45340        0.08160
C         -0.03910       -0.03450       -0.05210
C          0.57450       -0.97730       -1.12280
C          0.01050       -1.82820        0.03290
O          0.61620       -0.88070        0.99320
C         -1.28760       -0.97260        0.02250
C         -2.16260       -0.94120        1.26180
O         -3.00930       -2.08350        1.34570
H          1.10500        1.76890        0.08510
H         -0.44870        1.94110       -0.75760
H         -0.40960        1.79240        1.01120
H          0.08640       -1.03530       -2.09920
H          1.66330       -0.95180       -1.18520
H          0.14420       -2.89240        0.23190
H         -1.88790       -1.03980       -0.89060
H         -1.53500       -0.83140        2.15440
H         -2.83920       -0.08050        1.21600
H         -2.44970       -2.84610        1.52210
