17
gdb 13080	4.29361	1.25608	1.05343	3.4338	68.45	-0.2591	0.0292	0.2883	1103.9012	0.141899	-363.861922	-363.853674	-363.85273	-363.89531	29.188
C         -0.35080        1.52630       -0.05850
C          0.16160        0.10120       -0.04440
O          1.46660       -0.03560       -0.65390
C          1.90880       -0.91670        0.39870
C          0.67420       -0.57570        1.25920
C          0.95560        0.36140        2.44260
C          1.64590       -0.33310        3.52840
N          2.19260       -0.90200        4.37280
H          0.33540        2.21350        0.44340
H         -0.46120        1.86230       -1.09400
H         -1.33290        1.58980        0.42260
H         -0.56330       -0.55140       -0.55450
H          1.95360       -1.96250        0.06910
H          2.88690       -0.62650        0.79860
H          0.08410       -1.42880        1.59850
H          1.57710        1.20530        2.12360
H          0.02260        0.78190        2.83460
