18
gdb 13027	2.66184	2.4891	1.62131	2.255	67.39	-0.2506	0.0863	0.3369	859.9635	0.153077	-384.937387	-384.929603	-384.928659	-384.969068	29.512
C          0.11870        1.53830       -0.05080
C          0.02720        0.02140        0.01650
O          0.70340       -0.52050       -1.12120
C          1.31850       -1.75730       -0.78740
C          1.51820       -1.71580        0.70950
O          2.13250       -0.49890        1.15400
C          0.70020       -0.61660        1.22880
C          0.07290       -0.54560        2.59200
H          1.16270        1.84890        0.03850
H         -0.27400        1.89640       -1.00580
H         -0.46330        1.99930        0.75360
H         -1.03100       -0.29480        0.01250
H          0.68100       -2.61830       -1.05020
H          2.25320       -1.83210       -1.35340
H          1.75510       -2.61430        1.27390
H          0.01030        0.49170        2.93820
H         -0.94230       -0.95570        2.57530
H          0.66700       -1.10800        3.31600
