13
gdb 15448	3.65391	1.93196	1.26722	6.0434	67.78	-0.205	0.0085	0.2135	880.7458	0.098282	-357.699323	-357.692259	-357.691315	-357.730461	26.371
N          0.02830        1.04070        0.15240
H         -0.04220        0.03040        0.16200
H          0.67890        1.32780       -0.57000
C         -1.22470        1.63420        0.05320
N         -1.37880        2.98670        0.04710
C         -2.72790        3.31520        0.02520
C         -3.44180        2.15420        0.02030
C         -2.49690        1.07070        0.03010
C         -2.74220       -0.31770       -0.00020
N         -2.90390       -1.46690       -0.02650
H         -0.62170        3.64060        0.14960
H         -3.04340        4.34470        0.00810
H         -4.51480        2.05570       -0.00430
