15
gdb 4062	6.99477	1.0326	0.95544	0.3517	72.32	-0.2474	0.0018	0.2491	1169.3727	0.116724	-362.574558	-362.566519	-362.565575	-362.607265	29.716
O         -0.16050        1.32920        0.14240
N          0.01210       -0.06700        0.09610
C         -1.09830       -0.65390       -0.05690
C         -2.53520       -0.22610       -0.26470
C         -2.84590       -1.70950       -0.69120
C         -1.40430       -2.12750       -0.20770
C         -3.97690       -2.36550       -0.07120
C         -4.90920       -2.90530        0.46340
H          0.74500        1.64180        0.24300
H         -3.03650        0.06460        0.66290
H         -2.70790        0.54830       -1.01520
H         -2.91730       -1.78420       -1.77990
H         -0.79690       -2.69200       -0.91820
H         -1.42710       -2.66300        0.74570
H         -5.73520       -3.38350        0.92860
