16
gdb 18137	3.35852	1.88778	1.51259	4.8074	68.37	-0.2368	0.0149	0.2517	867.9665	0.131465	-342.745508	-342.738164	-342.73722	-342.777033	27.669
C         -0.05380        1.52620       -0.14500
C          0.05150        0.02780        0.03320
C          1.30420       -0.76830       -0.16000
N          2.46710        0.03740        0.28710
C          1.97000       -0.05830        1.69800
C          1.93050        1.20090        2.45060
N          1.89880        2.17520        3.07130
C          0.65610       -0.69990        1.22020
H          0.89940        2.01880        0.05360
H         -0.34200        1.76160       -1.17500
H         -0.80870        1.95230        0.52280
H         -0.82110       -0.52440       -0.31300
H          1.42000       -1.59200       -0.85410
H          3.34200       -0.46480        0.18640
H          2.54350       -0.78170        2.28760
H          0.11060       -1.43490        1.79690
