14
gdb 1396	6.64815	1.44006	1.23893	3.4211	63.59	-0.2801	0.0192	0.2994	915.137	0.111784	-287.427777	-287.419963	-287.419019	-287.459713	27.582
C          0.02280        1.57800        0.01560
C          0.01420        0.03850       -0.02280
C         -1.43180       -0.53610        0.02990
C         -2.13510       -0.16840        1.25640
N         -2.67410        0.12970        2.23430
C          0.69030       -0.47470       -1.21150
C          1.22580       -0.89180       -2.20320
H          1.04890        1.95220        0.00610
H         -0.49660        1.98880       -0.85540
H         -0.47260        1.93850        0.92110
H          0.54350       -0.33190        0.86420
H         -2.00210       -0.17280       -0.83190
H         -1.39900       -1.62730       -0.04510
H          1.71370       -1.26070       -3.07160
