20
gdb 9771	2.707	1.99768	1.62038	0.8597	70.32	-0.2473	0.0839	0.3312	929.9237	0.176192	-386.157019	-386.148374	-386.14743	-386.189978	32.113
C          0.01820        1.54780       -0.26570
C         -0.01820        0.03770       -0.03260
C         -1.43400       -0.53810        0.07590
C         -1.42830       -2.06020        0.22790
O         -2.08920        0.07890        1.17990
C         -3.44080        0.28580        0.80580
C         -3.32890        0.56970       -0.69240
O         -2.20430       -0.20290       -1.08750
H          1.05010        1.90560       -0.32680
H         -0.48510        1.80590       -1.20170
H         -0.47850        2.07820        0.55090
H          0.49110       -0.48530       -0.84990
H          0.51520       -0.21940        0.88980
H         -0.82810       -2.35570        1.09280
H         -2.44710       -2.43240        0.36370
H         -1.01120       -2.52660       -0.66870
H         -4.05310       -0.60730        1.00070
H         -3.83850        1.12050        1.38810
H         -4.20520        0.24790       -1.26380
H         -3.15220        1.63730       -0.88350
