16
gdb 6729	7.24524	0.71329	0.67055	1.4808	71.02	-0.2421	-0.0139	0.2282	1642.6127	0.126325	-383.720626	-383.71064	-383.709695	-383.758488	32.541
C         -0.12040        1.51570        0.16630
C          0.10170        0.01520        0.08930
O          1.18170       -0.49070        0.25500
C         -1.16310       -0.80840       -0.22080
C         -0.97390       -2.24770       -0.19400
C         -0.82270       -3.44000       -0.16170
C         -0.60500       -4.88010       -0.13390
O         -1.67380       -5.51360        0.56080
H          0.83650        2.02260        0.29330
H         -0.62080        1.88420       -0.73580
H         -0.77370        1.75500        1.01350
H         -1.94500       -0.50810        0.49070
H         -1.53300       -0.47700       -1.20230
H         -0.52660       -5.25340       -1.16830
H          0.36310       -5.08330        0.35170
H         -1.48300       -6.45700        0.57780
