14
gdb 19813	4.25071	2.11548	1.88316	4.8371	60.57	-0.2299	0.0264	0.2564	724.2614	0.109183	-378.674239	-378.668331	-378.667387	-378.704083	23.661
O         -0.03810        0.02940        0.17590
C         -0.00120        1.22200        0.07520
N         -1.00250        2.18790        0.00020
C         -0.09000        3.32820       -0.00110
C          0.45200        3.86510        1.36280
N          0.49130        2.71980        2.29560
C          1.58400        2.90070        1.31440
C          1.09540        2.31880       -0.03840
H         -1.93190        2.11860        0.39190
H         -0.25380        4.07410       -0.77830
H          0.40890        4.88540        1.72310
H          0.82500        3.06920        3.19270
H          2.61220        3.00560        1.63440
H          1.81060        2.28210       -0.85640
