16
gdb 16306	3.59341	1.68729	1.41826	3.876	66.69	-0.2444	-0.024	0.2204	902.7419	0.129576	-383.720164	-383.712562	-383.711618	-383.752025	28.262
O          0.11500        1.47020        0.03480
C          0.03350        0.06370        0.05860
C          0.17990       -0.67620        1.43670
C         -1.23810       -1.22630        1.27190
C         -2.22240       -0.12750        1.13710
C         -1.39010       -0.45520       -0.08510
C         -2.00190       -0.98390       -1.31140
O         -3.09730       -1.49540       -1.37210
H          1.03490        1.72400        0.16250
H          0.69220       -0.38680       -0.69780
H          0.96030       -1.43960        1.42890
H          0.32390       -0.01830        2.29920
H         -1.54070       -2.25460        1.42310
H         -3.25850       -0.42890        1.03010
H         -2.05390        0.82600        1.62850
H         -1.35590       -0.90320       -2.21620
