18
gdb 16425	3.23142	2.19458	1.81876	1.5111	66.28	-0.2374	0.071	0.3083	800.6323	0.156097	-384.919359	-384.912585	-384.911641	-384.949956	27.377
O          0.15010        1.38520       -0.30910
C          0.02860        0.00700        0.01130
C          0.69350       -0.38080        1.35610
O         -0.21500       -0.45480        2.45520
C         -1.52070       -0.88000        2.08740
C         -1.52260       -1.79550        0.83050
C         -1.43400       -0.46770        0.01820
C         -2.18800        0.20410        1.20560
H         -0.34090        1.88980        0.34810
H          0.57430       -0.50370       -0.79050
H          1.20410       -1.34750        1.24060
H          1.45090        0.36400        1.61540
H         -2.00950       -1.21430        3.00430
H         -0.73310       -2.54260        0.72020
H         -2.49450       -2.27920        0.70810
H         -1.87520       -0.41350       -0.97850
H         -3.26960        0.07090        1.12130
H         -1.97570        1.24540        1.46720
