18
gdb 12548	3.28657	1.81785	1.23912	0.3217	69.63	-0.2445	0.0192	0.2637	971.4918	0.154858	-384.932474	-384.924776	-384.923832	-384.964588	29.214
O         -0.02590        1.49100        0.08770
C          0.05990        0.07100        0.00490
C          0.58370       -0.51120        1.32420
O          1.04270       -1.83640        1.17200
C          0.06300       -2.84320        1.29970
C         -1.04290       -2.87610        0.27420
C         -1.60890       -1.88030       -0.40820
C         -1.34360       -0.39870       -0.36730
H          0.86630        1.83920        0.18390
H          0.76500       -0.23820       -0.78200
H          1.45120        0.07840        1.64740
H         -0.18190       -0.43350        2.11310
H          0.61790       -3.78660        1.25270
H         -0.39140       -2.79910        2.30810
H         -1.45000       -3.87540        0.12490
H         -2.42830       -2.15500       -1.07010
H         -2.04160        0.06680        0.34610
H         -1.59430        0.04000       -1.33940
