14
gdb 15928	3.67138	1.95659	1.57255	3.9289	62.15	-0.2514	-0.0084	0.2431	811.0674	0.108361	-378.675049	-378.668358	-378.667414	-378.706013	24.934
N         -0.05950       -1.16660       -0.13140
C         -0.02530       -0.01550       -0.02880
C          0.04240        1.42960        0.06300
C         -0.46680        2.28570       -1.12500
N          0.70240        3.20010       -0.97330
C          1.33200        2.31140        0.02760
C          0.93870        2.68910        1.46400
O         -0.31100        1.94670        1.35450
H         -0.48470        1.72400       -2.06540
H         -1.43780        2.75980       -0.95760
H          1.24520        3.29450       -1.82250
H          2.33890        1.94920       -0.17700
H          1.57460        2.26290        2.24840
H          0.77170        3.75570        1.63480
