17
gdb 6514	2.91989	1.87309	1.4168	4.8344	69.2	-0.2378	0.0267	0.2645	925.9874	0.141008	-360.029114	-360.019889	-360.018945	-360.062338	33.671
C          0.04430        1.53620        0.00470
C          0.03300        0.02220       -0.02440
N         -1.21880       -0.50360       -0.51220
C          1.33910       -0.70810       -0.25800
C          0.72430       -0.72090        1.13660
N          1.40320       -0.06020        2.22040
C          0.10120       -1.96590        1.54140
N         -0.43730       -2.94650        1.83820
H          0.98150        1.93830        0.39610
H         -0.08690        1.92700       -1.01030
H         -0.78580        1.90910        0.61190
H         -1.23550       -0.50280       -1.52770
H         -1.37650       -1.45780       -0.20450
H          1.31800       -1.63620       -0.81770
H          2.25620       -0.13590       -0.36620
H          2.20000        0.47150        1.89730
H          0.78550        0.55840        2.73420
