15
gdb 100	7.14221	4.37083	3.30265	0.1023	52.92	-0.2632	0.094	0.3573	465.3301	0.137341	-196.406419	-196.40034	-196.399396	-196.435152	22.005
C         -0.05190        1.55220       -0.10320
C          0.01230        0.04690        0.03750
C          1.30120       -0.70660       -0.19730
C          0.70430       -0.64890        1.19000
C          1.39750        0.09480        2.31080
H          0.87400        2.03540        0.22160
H         -0.21640        1.83700       -1.14850
H         -0.87160        1.97670        0.48800
H         -0.88510       -0.45600       -0.31580
H          1.27660       -1.64150       -0.74700
H          2.19420       -0.11400       -0.37570
H          0.21670       -1.56380        1.51900
H          1.91320        0.99050        1.95270
H          0.68740        0.40900        3.08450
H          2.14930       -0.54150        2.79110
