13
gdb 3397	4.98654	2.43507	2.21944	4.1705	53.61	-0.277	0.0002	0.2772	635.7741	0.101656	-344.451793	-344.445734	-344.44479	-344.481615	22.484
C          0.01610        1.55850        0.04960
C          0.08370        0.04880        0.05790
C          1.31870       -0.74380       -0.16920
O          2.47600       -0.03660        0.35490
C          1.97100       -0.16200        1.64910
O          2.51310        0.13530        2.66180
C          0.68360       -0.80020        1.20170
H          0.96120        2.00130        0.36990
H         -0.19970        1.92080       -0.96080
H         -0.77690        1.91540        0.71330
H         -0.80190       -0.44680       -0.33830
H          1.51000       -1.51720       -0.89970
H          0.13520       -1.57430        1.71800
