17
gdb 17860	4.43914	1.67154	1.48285	2.7041	69.	-0.2341	0.0778	0.312	897.3192	0.141895	-363.755734	-363.748669	-363.747724	-363.786797	27.598
C         -0.05230        1.56070       -0.13750
C         -0.02990        0.05880        0.01370
N          1.30420       -0.60040       -0.11920
C          0.61420       -0.63360        1.14050
C          1.15550       -0.30120        2.54180
C         -0.20500       -0.74560        3.13440
C          0.24300       -1.79040        2.08160
O          1.61470       -1.71290        2.64410
H          0.83260        2.00430        0.32600
H         -0.05840        1.84560       -1.19490
H         -0.94440        1.98880        0.33280
H         -0.87380       -0.46160       -0.44000
H          1.23750       -1.48950       -0.60840
H          1.84290        0.47840        2.86700
H         -0.15180       -1.09800        4.16460
H         -1.08950       -0.13920        2.92360
H         -0.16050       -2.77980        1.86220
