19
gdb 10614	2.4776	1.86269	1.50914	2.0232	67.59	-0.2351	0.0667	0.3018	953.1197	0.164772	-402.157219	-402.148321	-402.147377	-402.190463	32.873
C         -0.28520        1.40520        0.21500
N         -0.02840       -0.03200        0.25380
C          1.28560       -0.49640       -0.18170
C          0.90020       -0.57970        1.25610
C          1.55330        0.32100        2.29150
O          0.62780        0.77450        3.26580
C          0.39980       -1.90140        1.80900
O         -0.68690       -1.69780        2.71730
H          0.62030        2.02760        0.25550
H         -0.81080        1.63740       -0.71650
H         -0.92080        1.68190        1.05970
H          1.30390       -1.38790       -0.80480
H          2.02220        0.25880       -0.45430
H          2.38760       -0.23180        2.75620
H          1.98610        1.21170        1.82770
H          0.09620        0.00490        3.51590
H          0.09540       -2.56090        0.98630
H          1.18150       -2.40770        2.38530
H         -1.38470       -1.27920        2.19740
