12
gdb 3703	3.7584	3.50681	1.83473	0.8337	51.65	-0.2301	0.0046	0.2347	645.063	0.091585	-356.705991	-356.699516	-356.698572	-356.736444	22.94
C         -0.06720        1.54050       -0.06220
C         -0.01930        0.05120        0.00070
N         -0.13880       -0.73490       -1.07220
N         -0.04260       -1.96270       -0.58690
N          0.13310       -2.06650        0.73460
C          0.14940       -0.79690        1.11700
O          0.30620       -0.40530        2.39630
H          0.85890        1.98540        0.31690
H         -0.21030        1.86430       -1.09490
H         -0.88760        1.93890        0.54420
H         -0.09820       -2.77480       -1.17690
H          0.39770       -1.19910        2.93730
