20
gdb 10428	2.55104	1.82418	1.35422	2.6148	75.	-0.2451	-0.0194	0.2256	1016.5496	0.175885	-349.009667	-349.000839	-348.999895	-349.043476	32.169
C          0.05720        1.78490       -0.21340
C          0.10480        0.29070        0.13300
C         -1.22400       -0.47130       -0.01160
C         -1.82660       -0.56240       -1.46110
C         -2.08430       -2.07410       -1.22330
C         -1.15830       -2.02360        0.02170
C         -2.27920        0.07390        0.92700
O         -2.87900       -0.56570        1.75490
H          1.06500        2.21060       -0.19700
H         -0.35380        1.94810       -1.21540
H         -0.54890        2.35910        0.49310
H          0.83010       -0.20220       -0.52610
H          0.48470        0.15740        1.15450
H         -2.69140        0.06900       -1.68690
H         -1.05830       -0.37410       -2.21710
H         -3.12310       -2.27820       -0.95340
H         -1.79680       -2.75050       -2.03070
H         -0.14940       -2.38970       -0.18580
H         -1.53270       -2.48630        0.93570
H         -2.50350        1.15560        0.78430
