12
gdb 12163	3.63806	1.57622	1.20847	3.845	56.11	-0.2721	-0.0251	0.247	929.9851	0.084025	-414.677051	-414.669646	-414.668702	-414.709157	25.816
N         -0.01660        1.35830        0.27460
C          0.03590       -0.02890       -0.07210
C         -1.31430       -0.79500       -0.27090
O         -0.86640       -1.26110       -1.57850
C          0.28890       -0.50190       -1.52370
O          1.08040       -0.32460       -2.38690
C         -1.61310       -1.88840        0.64220
N         -1.83830       -2.73680        1.39330
H          0.87310        1.68890        0.62590
H         -0.27870        1.94290       -0.51160
H          0.68730       -0.56410        0.62270
H         -2.17510       -0.12960       -0.37150
