16
gdb 7885	3.69577	1.65531	1.20829	2.8844	67.32	-0.2482	-0.0267	0.2214	983.6654	0.12926	-383.772508	-383.76462	-383.763676	-383.80477	29.151
C          0.01640        1.49180        0.05250
C          0.01180       -0.00180       -0.00370
C          0.05640       -0.76810       -1.10040
C         -0.03400       -2.23780       -0.79100
O          0.89200       -3.04960       -1.47580
C          0.22000       -2.23960        0.72670
O          0.67410       -3.18480        1.31860
C         -0.05390       -0.83630        1.26100
H          0.85440        1.85950        0.65790
H          0.09550        1.93010       -0.94580
H         -0.89840        1.87440        0.52300
H          0.10700       -0.39660       -2.11740
H         -1.06400       -2.60500       -0.96810
H          1.15980       -3.73210       -0.84410
H          0.67460       -0.55370        2.02970
H         -1.04320       -0.79990        1.74010
