13
gdb 8991	6.03064	0.91998	0.8427	3.6106	64.27	-0.2585	-0.0439	0.2146	1270.6786	0.092522	-398.593704	-398.585123	-398.584179	-398.628149	28.895
O         -0.37940        0.33840        0.40140
C          0.13400        1.37920        0.09090
C          1.50630        1.48800       -0.56200
N          1.58480        2.58130       -1.50530
C          2.34510        3.69520       -1.26400
O          2.98860        3.86600       -0.24600
C          2.31080        4.66370       -2.34990
C          2.30080        5.48040       -3.23180
H         -0.36030        2.36170        0.26640
H          2.23870        1.70490        0.22540
H          1.76320        0.52900       -1.02220
H          1.10460        2.51470       -2.38860
H          2.30160        6.21150       -4.00350
