18
gdb 12792	3.51888	2.11448	1.64189	0.9245	72.91	-0.2169	0.0166	0.2335	848.1193	0.154468	-347.796356	-347.789167	-347.788222	-347.82721	28.692
C         -0.00750        1.45640       -0.06220
C         -0.04420       -0.04530        0.06210
C         -0.83860       -0.68890        1.16150
C          0.69920       -0.73590        1.18620
C          1.36690       -2.00590        0.82410
C          1.10190       -2.61710       -0.33100
C          0.13670       -2.02200       -1.31950
O          0.02940       -0.60710       -1.22120
H          0.90450        1.77280       -0.57770
H         -0.86630        1.81400       -0.63940
H         -0.03280        1.92830        0.92350
H         -1.34040       -0.04080        1.87230
H         -1.34530       -1.62900        0.97600
H          1.19630       -0.11500        1.92450
H          2.08420       -2.42490        1.52380
H          1.57450       -3.55700       -0.59830
H          0.47020       -2.21240       -2.34560
H         -0.86020       -2.48740       -1.22500
