11
gdb 3954	7.75725	1.97927	1.5926	4.0075	48.05	-0.2671	-0.0365	0.2306	702.6245	0.078119	-376.538277	-376.532007	-376.531063	-376.569087	21.34
O         -0.02600        1.41900        0.00820
C          0.00360        0.00300        0.00230
C         -1.41240       -0.46620        0.01230
C         -2.57440        0.23510        0.02420
O         -3.59290       -0.62450        0.02940
N         -3.01780       -1.92770        0.02040
N         -1.76570       -1.79660        0.01050
H          0.87990        1.74040        0.00170
H          0.51550       -0.39400       -0.88830
H          0.53020       -0.40100        0.88110
H         -2.80040        1.28710        0.02970
