15
gdb 3144	4.03508	2.74489	1.9193	2.8435	62.57	-0.2365	-0.0174	0.2191	693.9339	0.12479	-308.517192	-308.510593	-308.509649	-308.547837	24.532
O          0.06720        0.09810       -0.42870
C          0.01070        1.25260       -0.10810
C         -1.11540        2.18660        0.38510
C         -0.06090        3.34070        0.46510
C          1.01940        2.36240       -0.03010
C          2.45980        2.19580        0.40390
C          2.15380        2.57330       -1.00960
H         -1.92080        2.32800       -0.34090
H         -1.55770        1.87990        1.33690
H         -0.26100        4.17780       -0.20740
H          0.10270        3.72910        1.47280
H          2.86270        2.95470        1.06650
H          2.79010        1.18270        0.60770
H          2.27270        1.82100       -1.78220
H          2.34480        3.59360       -1.32560
