14
gdb 12758	3.35724	1.81528	1.50367	3.9035	61.9	-0.2405	0.0113	0.2518	849.4711	0.107371	-378.672878	-378.665751	-378.664807	-378.704158	26.901
O          0.02980        1.43080        0.02540
C         -0.01910        0.05830        0.01040
C         -0.35880       -0.77690       -1.19650
C         -1.19170       -0.89790        0.05330
N         -0.48870       -1.82020        0.97750
C          0.62710       -0.81720        1.10860
C          1.97240       -1.34220        0.87530
N          3.04280       -1.72520        0.66610
H          0.68610        1.72520       -0.61690
H         -0.82400       -0.20070       -1.99030
H          0.26660       -1.60660       -1.51460
H         -2.26090       -0.73680        0.09320
H         -0.97750       -1.89740        1.86410
H          0.60420       -0.28370        2.06370
