16
gdb 19456	4.06744	1.81452	1.68399	1.2861	69.1	-0.25	0.0351	0.2851	821.1841	0.131594	-346.549491	-346.542894	-346.54195	-346.580025	26.367
C         -0.10480       -1.30590       -0.13340
C         -0.06000       -0.10560       -0.06420
C          0.00270        1.33580        0.02730
C         -0.04160        2.08390        1.39730
C          1.05980        1.40950        2.23690
C          2.18030        1.42990        1.14730
C          1.35910        2.10950        0.03520
O          0.67810        3.17900        0.75650
H         -0.15000       -2.36490       -0.19950
H         -0.68390        1.82100       -0.66950
H         -0.97810        2.37730        1.87030
H          1.30730        2.01140        3.11310
H          0.78780        0.40210        2.55910
H          3.03790        2.04290        1.43020
H          2.52870        0.43380        0.86610
H          1.85230        2.42900       -0.88210
