18
gdb 9738	2.90267	1.8869	1.58324	2.0813	67.72	-0.2373	-0.0242	0.2131	902.1824	0.152729	-384.963366	-384.955099	-384.954155	-384.996584	29.948
C         -0.16940        1.66520        0.37310
C          0.08300        0.18630        0.07510
C          0.86970       -0.08860       -1.21330
C          1.66040       -1.35500       -0.85440
C          1.95380       -1.13000        0.63200
O          0.84570       -0.38940        1.15110
C         -1.26240       -0.55070        0.08670
O         -1.88450       -0.88240       -0.88860
H          0.78650        2.18640        0.47750
H         -0.74220        2.12910       -0.43570
H         -0.72600        1.78580        1.30770
H          0.19410       -0.22220       -2.05980
H          1.54350        0.74720       -1.42790
H          1.03540       -2.24330       -0.99200
H          2.56760       -1.48460       -1.44880
H          2.04970       -2.05780        1.20490
H          2.87770       -0.54850        0.76840
H         -1.62170       -0.76590        1.11800
