13
gdb 23915	3.37137	1.6607	1.46744	1.7678	46.87	-0.2586	0.0702	0.3287	844.9843	0.09149	-530.088964	-530.081637	-530.080693	-530.120898	27.085
O          0.26220        1.38560        0.15410
C          0.07460        0.01250        0.06430
C         -0.44060       -0.82890        1.19570
C         -1.28430       -0.64850       -0.05770
C         -2.54390        0.15320        0.02030
F         -2.43120        1.19120        0.89160
F         -2.87840        0.67620       -1.16610
F         -3.58500       -0.58230        0.43520
H         -0.47600        1.77170        0.63720
H          0.85300       -0.41630       -0.55770
H         -0.00640       -1.80390        1.38490
H         -0.78020       -0.30550        2.08330
H         -1.38440       -1.48330       -0.74300
