21
gdb 15084	2.48084	1.73277	1.09289	1.2036	74.93	-0.2351	0.0817	0.3168	1130.0317	0.187823	-366.227117	-366.217778	-366.216834	-366.261232	34.221
C         -0.63090        1.78890       -0.64880
C         -0.27290        0.33400       -0.33090
C         -1.45610       -0.59120       -0.00600
C         -0.94400       -2.03570        0.10670
O         -1.95510       -2.99280        0.37180
N         -2.08620       -0.20800        1.26040
C         -3.13320        0.80960        1.20980
C         -3.48340       -0.61150        1.45260
H          0.26250        2.34530       -0.94960
H         -1.35170        1.85340       -1.47170
H         -1.05980        2.30020        0.21670
H          0.25920       -0.09620       -1.18910
H          0.42460        0.30600        0.51510
H         -2.18740       -0.55320       -0.83620
H         -0.49650       -2.32670       -0.84950
H         -0.15310       -2.07240        0.87110
H         -2.23560       -2.86580        1.28280
H         -3.13320        1.52880        2.02400
H         -3.39900        1.22190        0.23860
H         -3.97240       -1.15100        0.64540
H         -3.74320       -0.94900        2.45290
