15
gdb 13657	5.95848	0.88407	0.81486	3.5347	77.38	-0.2473	-0.0644	0.1829	1353.6007	0.116812	-362.604547	-362.596052	-362.595108	-362.638519	28.948
C         -0.07310        1.43720       -0.30930
N          0.05750        0.00660       -0.05880
C          1.39060       -0.54760       -0.07420
C          0.63820       -0.43020        1.22770
C          1.08420        0.50560        2.21280
C          1.42410        1.27490        3.08370
C          1.84560        2.21480        4.08550
O          2.01110        1.94710        5.25460
H          0.76410        2.03500        0.07940
H         -0.13910        1.58790       -1.39060
H         -0.99860        1.79840        0.14770
H          1.50380       -1.53080       -0.52270
H          2.23260        0.12900       -0.21130
H          0.17250       -1.32690        1.62870
H          2.01480        3.24040        3.69760
