17
gdb 8821	2.81385	1.62001	1.09467	3.0037	71.82	-0.2429	0.0308	0.2737	1091.2571	0.139895	-363.867661	-363.858131	-363.857187	-363.902623	33.263
C         -0.14820        1.41930        0.89970
N          0.15210        0.02060        1.12950
C          0.66680       -0.78190        0.16740
O          0.92480       -0.41640       -0.96610
C          0.91940       -2.25860        0.57140
C          2.36750       -2.64710        0.20110
C          0.60500       -2.57560        1.96050
C          0.35710       -2.82940        3.11060
H          0.10580        1.64330       -0.13700
H         -1.21130        1.62870        1.06210
H          0.44000        2.06570        1.56050
H         -0.01550       -0.38420        2.03750
H          0.24330       -2.83360       -0.07530
H          3.08240       -2.12640        0.84420
H          2.51680       -3.72260        0.32020
H          2.55280       -2.36240       -0.83560
H          0.13690       -3.07140        4.12110
