17
gdb 12194	4.01119	1.43786	1.22217	4.7646	68.59	-0.2754	0.0311	0.3065	996.4142	0.14183	-363.868517	-363.86019	-363.859245	-363.901215	30.459
C         -0.14550        1.51540       -0.03230
C         -0.03650       -0.00510       -0.04590
C          1.14340       -0.56240       -0.89070
O          1.57990        0.30380       -1.90540
C          1.99540       -0.69630        0.40020
C          0.66570       -0.63490        1.21500
C          0.65780        0.10930        2.46110
N          0.65500        0.71450        3.44680
H          0.80590        1.99490        0.21300
H         -0.45240        1.87730       -1.01670
H         -0.88500        1.83840        0.70600
H         -1.01080       -0.44570       -0.27160
H          0.89280       -1.55420       -1.29390
H          2.28220       -0.12900       -2.40080
H          2.61810       -1.58320        0.53190
H          2.59750        0.20080        0.55720
H          0.28050       -1.64010        1.40680
