15
gdb 3531	7.39616	2.39056	2.31828	1.4135	60.86	-0.2147	0.068	0.2828	624.8847	0.126111	-304.567859	-304.56226	-304.561316	-304.59684	22.289
C          0.03710        1.53360       -0.16790
N          0.02900        0.07890       -0.04410
C         -1.11930       -0.49870        0.71590
C         -0.26040       -1.71490        1.18540
N         -0.56800       -1.58160        2.64500
C         -0.54800       -0.16690        2.15210
C          0.66120       -0.46620        1.19380
H          1.03470        1.86320       -0.47640
H         -0.66830        1.83180       -0.95050
H         -0.23030        2.07140        0.75760
H         -2.15170       -0.47920        0.35820
H         -0.09590       -2.66320        0.67500
H         -1.53130       -1.87500        2.82860
H         -0.73140        0.68250        2.81030
H          1.72880       -0.41410        1.40880
