21
gdb 1749	4.82327	1.45351	1.31127	0.1314	74.72	-0.2614	0.0857	0.347	1032.1865	0.193984	-274.985024	-274.97643	-274.975485	-275.017739	31.994
C         -0.09010        1.59220        0.10290
C         -0.04450        0.06480        0.20500
C         -1.36080       -0.59800       -0.22580
C         -1.38980       -2.11310       -0.07950
C         -0.41370       -2.87910       -0.95400
C         -1.69940       -2.67710        1.28810
C         -2.73040       -2.75670        0.18550
H          0.85830        2.04280        0.41220
H         -0.29220        1.91460       -0.92470
H         -0.87960        2.00860        0.73890
H          0.78090       -0.31300       -0.41050
H          0.18520       -0.23000        1.23690
H         -2.18040       -0.16940        0.36620
H         -1.57280       -0.33190       -1.27180
H          0.62670       -2.62780       -0.72110
H         -0.52790       -3.95910       -0.81790
H         -0.57910       -2.65900       -2.01580
H         -1.20450       -3.59370        1.59210
H         -1.87880       -1.98250        2.10260
H         -3.60330       -2.11590        0.25610
H         -2.92990       -3.72740       -0.25710
