17
gdb 12833	3.12393	2.38138	1.75747	3.7495	67.91	-0.2447	0.0168	0.2615	802.7713	0.143731	-363.842381	-363.835497	-363.834553	-363.873035	26.945
C         -0.12720        1.55420       -0.09380
C         -0.08670        0.02520       -0.09510
C          1.12310       -0.54200       -0.90960
O          1.85500       -0.81110        0.35720
C          0.66720       -0.63180        1.01400
N          0.09480       -1.17290        1.99870
C         -1.34990       -0.89330        1.71670
C         -1.45040       -0.64750        0.16190
H          0.87400        1.97940        0.02630
H         -0.54470        1.92640       -1.03560
H         -0.75210        1.93090        0.72140
H          0.94570       -1.48460       -1.43390
H          1.67440        0.16470       -1.53220
H         -1.93980       -1.75740        2.03210
H         -1.70590       -0.02860        2.29140
H         -2.31200       -0.03990       -0.12750
H         -1.52210       -1.61350       -0.34820
