22
gdb 13726	5.50244	0.7883	0.73967	0.9562	80.	-0.2492	0.0916	0.3407	1614.2538	0.198787	-350.184973	-350.175127	-350.174183	-350.220366	34.822
C         -0.05170        1.39250       -0.21660
O         -0.02850        0.02880        0.12360
C         -1.28270       -0.59870       -0.03670
C         -1.14850       -2.06630        0.35530
C         -2.46080       -2.81000        0.22270
C         -2.89620       -3.39750       -1.10270
C         -2.54890       -4.31040        0.04880
C         -1.33330       -5.21080       -0.00090
H          0.95560        1.78780       -0.06260
H         -0.33670        1.54840       -1.26980
H         -0.75550        1.96090        0.41300
H         -2.04290       -0.10140        0.59190
H         -1.62710       -0.51280       -1.08170
H         -0.37620       -2.51880       -0.27500
H         -0.77980       -2.11700        1.38740
H         -3.26120       -2.37920        0.82140
H         -3.93160       -3.30190       -1.41160
H         -2.18450       -3.34530       -1.92210
H         -3.40150       -4.76650        0.54660
H         -0.50460       -4.75300       -0.54830
H         -0.97210       -5.45360        1.00500
H         -1.57290       -6.15440       -0.50360
