20
gdb 17058	3.7785	1.42044	1.22965	1.8859	75.47	-0.2337	0.0881	0.3218	1086.8838	0.176326	-348.939796	-348.9316	-348.930656	-348.972332	31.163
C          0.45670        0.98800        0.67280
C          0.17220       -0.51700        0.74230
C         -1.29160       -0.84710        0.49890
C         -1.83360       -0.88650       -0.96130
O         -1.04020       -2.11660       -1.19540
C         -1.69330       -2.30110        0.12390
C         -3.01740       -1.79640       -0.52110
C         -4.22100       -1.30870        0.26870
H          1.51100        1.20060        0.87420
H          0.22110        1.39120       -0.31810
H         -0.14000        1.54320        1.40570
H          0.78040       -1.05250        0.00830
H          0.45890       -0.89510        1.73270
H         -1.93920       -0.35040        1.22750
H         -1.80290       -0.11930       -1.73710
H         -1.49070       -3.23410        0.65340
H         -3.31550       -2.45520       -1.34110
H         -3.96180       -0.64030        1.09320
H         -4.91230       -0.77110       -0.38920
H         -4.76840       -2.15900        0.68970
