18
gdb 9632	3.96961	1.18075	1.07203	1.7304	75.5	-0.2403	0.052	0.2923	1152.162	0.15107	-347.752343	-347.743084	-347.74214	-347.786046	33.895
C          0.00620        1.54830       -0.14900
C          0.02030        0.03210        0.00540
C          1.34290       -0.71530       -0.12250
C          0.66630       -0.64380        1.21560
C          1.26330        0.13390        2.35950
O          2.21490       -0.71150        2.99480
C         -1.15310       -0.61650       -0.52260
C         -2.14250       -1.13660       -0.96810
H          0.94180        1.99770        0.19160
H         -0.12870        1.81470       -1.20170
H         -0.81750        1.99520        0.41660
H          1.34790       -1.65890       -0.65420
H          2.22730       -0.10380       -0.27220
H          0.16860       -1.55270        1.53870
H          1.73970        1.05620        1.99590
H          0.46870        0.43080        3.06260
H          2.53840       -0.25790        3.77900
H         -3.01210       -1.60300       -1.35950
