16
gdb 8813	4.09202	1.34079	1.02426	1.1249	65.69	-0.2383	-0.0329	0.2054	1134.3064	0.128806	-417.090748	-417.081521	-417.080576	-417.124822	31.771
C         -0.01610        1.35370       -0.04980
O         -0.02520       -0.07950       -0.07240
C         -1.23200       -0.63770       -0.06080
O         -2.27490       -0.02080       -0.03990
C         -1.19180       -2.15160       -0.07060
N         -2.45080       -2.68170       -0.21160
N         -0.07740       -2.76510        0.02110
C         -0.12360       -4.21490        0.00510
H          1.03500        1.64000       -0.06090
H         -0.53390        1.75550       -0.92450
H         -0.50730        1.72760        0.85210
H         -3.21020       -2.03060       -0.07960
H         -2.60910       -3.63500        0.06660
H         -0.67210       -4.62380        0.87040
H         -0.61090       -4.60510       -0.90240
H          0.89230       -4.61440        0.04370
