19
gdb 14020	5.29543	1.14246	1.06948	1.9712	72.18	-0.2416	0.0618	0.3034	1168.4669	0.165184	-365.01487	-365.00656	-365.005616	-365.048048	30.299
C          0.32390        1.51420        0.20220
C         -0.24840        0.13910       -0.15820
C          0.42940       -0.46950       -1.36440
N          1.74220       -1.11650       -1.12400
C          0.60600       -1.92450       -1.54130
C          0.04260       -3.11650       -0.77430
O         -0.13810       -3.84250       -2.01380
C          0.45140       -2.78250       -2.79470
H          1.39420        1.43830        0.41700
H          0.19520        2.22610       -0.62100
H         -0.17210        1.93170        1.08350
H         -0.13120       -0.54350        0.69100
H         -1.32540        0.21860       -0.35590
H          0.33220        0.11020       -2.28400
H          2.37510       -0.96010       -1.90540
H          0.75730       -3.60840       -0.10310
H         -0.90770       -2.96070       -0.24890
H         -0.23130       -2.40690       -3.56810
H          1.39460       -3.09320       -3.26720
