16
gdb 14085	3.4605	1.696	1.38584	2.8257	66.82	-0.2356	-0.018	0.2177	919.5746	0.12903	-383.72988	-383.722038	-383.721094	-383.762256	28.885
O         -0.06820        1.38120       -0.01840
C         -0.03990       -0.00880        0.07860
C         -0.58070       -0.68720        1.29700
C         -1.39300       -0.68060        0.01750
C         -2.73630       -0.01480       -0.31700
C         -3.04980       -1.19190       -1.30060
C         -1.72010       -1.84690       -0.87030
O         -1.16360       -2.87830       -1.12670
H          0.61420        1.73710        0.56050
H          0.76460       -0.50330       -0.46600
H         -0.14820       -1.63490        1.60160
H         -0.94700       -0.05260        2.09780
H         -3.42800        0.05240        0.52550
H         -2.64430        0.96790       -0.78140
H         -3.93700       -1.78950       -1.07410
H         -3.07600       -0.92070       -2.35970
