20
gdb 15719	2.88666	1.79116	1.2476	1.2411	71.01	-0.2495	0.088	0.3375	1038.2355	0.177058	-386.151243	-386.14265	-386.141706	-386.184522	31.389
C         -0.16990        1.59380        0.15250
C         -0.24520        0.06450        0.15660
C          0.79330       -0.56510        1.08560
O          0.61030       -0.07340        2.42220
C          0.23200       -1.16210        3.24560
O         -0.16910       -2.20630        2.40360
C          0.69630       -2.09940        1.27330
C          0.15140       -2.93350        0.13020
H          0.80620        1.94050       -0.20590
H         -0.93670        2.02440       -0.49840
H         -0.31360        1.98610        1.16220
H         -1.24340       -0.26030        0.47300
H         -0.08870       -0.31810       -0.85970
H          1.80180       -0.28310        0.75340
H          1.09180       -1.46670        3.87030
H         -0.61030       -0.87660        3.88510
H          1.69640       -2.47250        1.55370
H         -0.85830       -2.62020       -0.14430
H          0.79780       -2.84660       -0.74850
H          0.11570       -3.98620        0.42310
