16
gdb 16944	3.97741	2.06722	1.8936	1.8788	67.9	-0.2121	-0.0109	0.2012	778.2996	0.131458	-346.579502	-346.573113	-346.572169	-346.609675	25.843
C         -0.02200        1.49140        0.04400
C         -0.05290        0.00640       -0.04190
C         -0.07280       -0.82470       -1.08140
C          0.00690       -2.24440       -0.46810
O         -0.75880       -2.04270        0.73200
C          0.03120       -0.93850        1.19470
C          1.44140       -1.58320        1.18410
C          1.42560       -2.40590        0.14050
H          0.90070        1.83800        0.52970
H         -0.07530        1.95460       -0.94500
H         -0.85410        1.87670        0.64690
H         -0.06760       -0.59800       -2.13820
H         -0.38450       -3.07190       -1.05760
H         -0.33770       -0.54910        2.14320
H          2.24670       -1.33990        1.86190
H          2.21580       -3.01760       -0.27020
