18
gdb 6011	2.41762	1.85253	1.51698	1.3789	68.7	-0.2495	-0.0551	0.1944	951.5906	0.149226	-384.977332	-384.967579	-384.966635	-385.012015	34.165
C          0.86040        1.03530        0.31840
C         -0.42980        0.46370       -0.23610
O         -1.50900        0.76450        0.21450
C         -0.31480       -0.55450       -1.41050
C         -1.70390       -0.79870       -2.01450
C          0.70290       -0.07710       -2.46030
C          0.17340       -1.85310       -0.75780
O          1.32320       -2.20520       -0.70010
H          1.62530        0.26110        0.42610
H          1.25960        1.78740       -0.37100
H          0.65720        1.51170        1.27820
H         -2.09910        0.12370       -2.44750
H         -1.65120       -1.55570       -2.80340
H         -2.41220       -1.12930       -1.25210
H          1.71600       -0.05770       -2.05710
H          0.70220       -0.76240       -3.31290
H          0.44430        0.91990       -2.82930
H         -0.63900       -2.46340       -0.30420
