20
gdb 11861	5.78365	1.06329	1.00871	1.3341	76.08	-0.2594	0.0772	0.3365	1217.6943	0.176781	-348.973464	-348.965066	-348.964121	-349.006696	31.687
O         -0.00710        1.36330       -0.26700
C          0.01880       -0.02780        0.02150
C         -1.41040       -0.52360        0.06680
C         -2.20720       -0.56270       -1.27200
C         -2.66870       -1.97940       -0.90350
C         -4.09580       -2.43420       -0.80010
C         -3.15840       -3.07250       -1.80260
C         -1.62810       -2.05890        0.22290
H          0.90020        1.67500       -0.33200
H          0.57470       -0.58470       -0.75190
H          0.51340       -0.22790        0.98700
H         -1.95710        0.03630        0.83100
H         -2.98280        0.19510       -1.40690
H         -1.54500       -0.54050       -2.14470
H         -4.38770       -3.01720        0.06820
H         -4.87250       -1.77450       -1.17510
H         -3.30270       -2.84450       -2.85430
H         -2.81930       -4.08610       -1.61070
H         -0.73940       -2.63550       -0.06060
H         -1.97380       -2.41280        1.19820
