17
gdb 12800	3.58814	2.10145	1.61583	2.087	67.99	-0.2415	0.0284	0.2698	833.7653	0.143575	-363.863098	-363.856036	-363.855092	-363.894113	27.331
C         -0.25540        1.53070        0.06310
C          0.04810        0.04960       -0.00760
C         -0.67760       -0.88490        0.94540
C          0.78870       -0.59480        1.12660
O          1.72320       -1.62120        0.87500
C          1.80690       -2.07830       -0.39980
N          1.23980       -1.66410       -1.44840
C          0.38620       -0.48480       -1.39490
H          0.58810        2.12700       -0.30300
H         -1.13120        1.77930       -0.54810
H         -0.47040        1.84660        1.08910
H         -1.37640       -0.46260        1.65970
H         -0.93890       -1.87480        0.58450
H          1.12120       -0.00070        1.97030
H          2.48170       -2.93140       -0.43270
H         -0.53100       -0.70330       -1.95850
H          0.89880        0.30680       -1.95820
