14
gdb 10444	2.85918	1.77241	1.27442	1.9035	68.69	-0.2626	0.0194	0.282	954.9912	0.103447	-345.305657	-345.297435	-345.29649	-345.338436	30.076
C         -0.15890       -1.13260        0.41490
C         -0.07320        0.02470        0.10620
C          0.03040        1.43010       -0.26690
C          1.44640        1.99180       -0.13160
C          1.62390        3.40160        0.27390
O          1.83260        2.34460        1.20480
C          2.46250        1.35640       -0.93650
C          3.28700        0.82490       -1.62990
H         -0.23100       -2.15550        0.69040
H         -0.30050        1.56530       -1.30440
H         -0.63140        2.03360        0.36440
H          2.51760        3.93510       -0.04260
H          0.74160        4.01720        0.44730
H          4.02140        0.34910       -2.23210
