13
gdb 190	8.61149	3.43237	2.49228	1.9162	55.77	-0.1934	0.0496	0.243	523.1127	0.109918	-249.397368	-249.391707	-249.390763	-249.42627	20.832
C         -0.01850        1.50200        0.05920
C         -0.00260        0.01250       -0.04580
C         -0.05930       -0.82130       -1.14110
C         -0.00850       -2.16610       -0.67450
C          0.07790       -2.11880        0.69540
N          0.08120       -0.79500        1.06540
H          0.89460        1.89680        0.52320
H         -0.09680        1.94250       -0.93730
H         -0.86800        1.86890        0.64950
H         -0.12990       -0.49520       -2.16810
H         -0.03300       -3.06150       -1.27630
H          0.13680       -2.90200        1.43400
H          0.13660       -0.46150        2.01190
