16
gdb 6725	5.78466	0.96533	0.86015	4.9727	66.74	-0.2381	0.0091	0.2472	1317.6493	0.128447	-417.079143	-417.069881	-417.068936	-417.114159	31.559
C          0.13290        1.02530        0.04590
N         -0.74890        0.22500       -0.77740
C         -1.42150       -0.66510       -0.20330
O         -2.28760       -1.42570       -0.92160
C         -2.95350       -2.45080       -0.22550
C         -2.02650       -3.63920        0.07970
N         -2.66280       -4.84130        0.16920
O         -0.84110       -3.49020        0.28620
H          1.16430        0.91580       -0.30790
H         -0.12810        2.08500       -0.05680
H          0.10760        0.76460        1.11670
H         -1.39760       -0.89380        0.87030
H         -3.36450       -2.09160        0.73020
H         -3.79510       -2.75090       -0.85610
H         -3.60010       -4.97610       -0.16820
H         -2.10150       -5.65850        0.34970
