17
gdb 11362	6.04277	1.2589	1.06226	3.7475	71.89	-0.2262	0.0047	0.2309	1108.0938	0.143108	-360.081689	-360.073592	-360.072648	-360.114669	29.366
C         -0.06160        1.53890       -0.06460
C          0.03130        0.01740        0.04820
C          0.76060       -0.44780        1.27270
N          1.27590        0.30290        2.17010
C          1.87820       -0.59070        3.16620
C          1.62140       -2.01730        2.68720
N          1.98340       -3.08660        3.26900
N          0.91820       -1.81880        1.50020
H          0.93370        1.98770       -0.09580
H         -0.60210        1.81990       -0.97260
H         -0.58180        1.96130        0.79800
H         -0.97210       -0.43080        0.05470
H          0.53490       -0.40450       -0.83280
H          2.95190       -0.39690        3.26250
H          1.43640       -0.42370        4.15450
H          1.69390       -3.91900        2.75270
H          0.58000       -2.55350        0.90170
