12
gdb 21113	3.55628	2.54255	1.49642	2.1212	59.03	-0.2638	-0.1022	0.1616	764.1735	0.084876	-410.837589	-410.83106	-410.830116	-410.868519	23.202
C         -0.03270        1.43930       -0.01600
N         -0.00880       -0.01990        0.00050
N         -0.05380       -0.62420       -1.17820
N         -0.03550       -1.90630       -1.22370
C          0.03080       -2.57400       -0.02020
N          0.07790       -2.06620        1.16960
C          0.06010       -0.68530        1.26060
O          0.09680       -0.03760        2.27690
H          0.86880        1.82320        0.46630
H         -0.08540        1.75470       -1.05670
H         -0.89800        1.79520        0.54720
H          0.04340       -3.65720       -0.12070
