16
gdb 20758	3.37552	1.95858	1.2616	3.8229	68.55	-0.2076	0.0075	0.2151	951.466	0.129882	-379.928286	-379.919805	-379.918861	-379.961163	30.137
C         -0.06770        1.50650       -0.01200
C         -0.06550        0.01380        0.02940
N         -0.17320       -0.69570       -1.06900
O         -0.15160       -2.02440       -0.67160
C         -0.01110       -2.09020        0.67470
C          0.02910       -3.44310        1.28930
C          0.04460       -0.82600        1.18180
N          0.09450       -0.38320        2.51500
H          0.88780        1.91820        0.33480
H         -0.23800        1.85260       -1.03310
H         -0.85160        1.91120        0.63710
H          0.66160       -4.11540        0.70170
H          0.43790       -3.39140        2.30300
H         -0.96720       -3.89630        1.35310
H          0.27770       -1.13570        3.16730
H          0.78840        0.34200        2.65630
