20
gdb 9555	2.87898	1.56322	1.44883	2.3499	70.76	-0.2419	0.0593	0.3012	1016.9265	0.174946	-386.127908	-386.118701	-386.117757	-386.161374	33.961
C         -0.00080        1.65340       -0.07440
C         -0.00070        0.13190        0.11920
C         -1.39250       -0.49620        0.04050
O         -2.26880        0.01100        1.02500
C         -1.95870       -0.62460       -1.40110
O         -1.67920       -2.03730       -1.41570
C         -1.44430       -2.04720        0.01430
C         -0.26530       -2.90670        0.41550
H          1.02040        2.04450       -0.07270
H         -0.46230        1.94050       -1.02580
H         -0.53540        2.17000        0.73140
H          0.63200       -0.32870       -0.64720
H          0.44270       -0.11550        1.09090
H         -2.25060        0.97270        0.98880
H         -3.03490       -0.41130       -1.44990
H         -1.43860       -0.09720       -2.20940
H         -2.34860       -2.37440        0.54790
H          0.65380       -2.59960       -0.08980
H         -0.10870       -2.85870        1.49830
H         -0.46440       -3.94980        0.14990
