13
gdb 4608	5.70973	1.63264	1.2714	3.3692	67.49	-0.2002	-0.0657	0.1345	886.6245	0.097088	-394.794407	-394.787627	-394.786683	-394.825308	25.671
N          0.06150        1.43640        0.10340
C         -0.04190        0.05220       -0.04650
C         -1.19850       -0.63830       -0.10410
O         -1.22350       -1.98920       -0.33700
C         -0.04890       -2.67800       -0.51260
N         -0.00530       -3.92870       -0.73840
C          1.16330       -1.86410       -0.41330
N          1.17960       -0.59790       -0.19990
H          0.95170        1.69700        0.50610
H         -0.70970        1.87100        0.58990
H         -2.19220       -0.22850        0.01130
H         -0.94480       -4.32690       -0.77130
H          2.10280       -2.39820       -0.53050
