17
gdb 1357	3.39543	2.24911	2.0787	1.9606	60.43	-0.2271	0.0562	0.2832	750.2223	0.146016	-346.833711	-346.825409	-346.824464	-346.865542	30.591
C         -0.04020        1.53970        0.02960
C          0.01590        0.02640       -0.00060
C         -1.23270       -0.64950       -0.53450
C          1.34420       -0.66210       -0.29250
O          2.51350        0.08080       -0.45160
C          0.74710       -0.71550        1.09830
O          1.40650        0.07280        2.06290
H          0.90460        1.98030        0.34850
H         -0.26860        1.92710       -0.96950
H         -0.82270        1.88810        0.71260
H         -1.44610       -0.31810       -1.55730
H         -1.12590       -1.73940       -0.55630
H         -2.10670       -0.41460        0.08480
H          1.33890       -1.54980       -0.91970
H          2.70660        0.46020        0.41730
H          0.31020       -1.63440        1.48560
H          2.02820       -0.49700        2.52930
