18
gdb 10984	2.7105	2.40173	1.96055	2.7331	67.44	-0.2309	0.0702	0.3011	803.229	0.154186	-384.922303	-384.914956	-384.914012	-384.953252	29.141
C         -0.01440        1.49640        0.09530
C         -0.05690        0.00180       -0.04460
C          0.31750       -0.80590       -1.32020
C         -0.36600       -1.95370       -0.51770
C          0.55860       -2.03020        0.70160
O          0.75570       -0.62510        0.96680
C         -1.35610       -0.84540       -0.02170
O         -1.98610       -0.95500        1.22410
H          1.01510        1.85960        0.02170
H         -0.61030        1.97490       -0.68720
H         -0.41330        1.79300        1.06980
H         -0.23550       -0.50890       -2.21330
H          1.38390       -0.90150       -1.53300
H         -0.69540       -2.88640       -0.97460
H          0.08620       -2.50840        1.56600
H          1.51910       -2.51420        0.49090
H         -2.04980       -0.53990       -0.81450
H         -2.77980       -1.48860        1.11970
