15
gdb 3133	5.87987	2.11494	1.84818	2.1144	57.1	-0.2334	0.0735	0.3069	716.7522	0.124074	-345.587398	-345.580628	-345.579683	-345.618134	24.706
C         -0.26280        1.34340       -0.06150
O          0.22110        0.01880        0.11140
C          0.75670       -0.52440       -1.02900
C         -0.07180       -1.00580       -2.20540
C          0.83390       -1.95870       -1.46710
O          2.18270       -1.82150       -1.92400
C          2.23150       -0.45180       -1.43510
H          0.54560        2.04050       -0.32240
H         -1.03120        1.38830       -0.84470
H         -0.69910        1.64790        0.89200
H         -1.12600       -1.11890       -1.96930
H          0.15720       -0.72210       -3.22940
H          0.53420       -2.89580       -1.01420
H          2.52950        0.25960       -2.21380
H          2.90030       -0.37340       -0.57050
