14
gdb 11096	6.3518	1.15421	1.08765	4.1785	63.	-0.2617	-0.0492	0.2125	1041.6401	0.107399	-378.714913	-378.70746	-378.706516	-378.747339	26.116
O         -0.15670        0.05050        0.00070
C          0.02230        1.22630       -0.19630
C          1.34290        1.92100        0.05220
C          1.35760        2.73820        1.38120
C          2.17640        1.54460        1.95800
N          2.40790        1.05130        0.57720
C          3.38740        1.86690        2.71290
N          4.33100        2.13660        3.32280
H         -0.79130        1.88350       -0.57660
H          1.61390        2.48640       -0.84940
H          1.93570        3.65830        1.30770
H          0.39920        2.93990        1.86020
H          1.55220        0.88240        2.57030
H          2.19900        0.06320        0.45870
