17
gdb 2482	4.88875	2.58298	2.39157	1.6594	62.96	-0.2425	0.0913	0.3338	656.0419	0.150447	-309.702591	-309.696621	-309.695677	-309.731993	24.007
C         -0.05420        1.51390        0.02870
C          0.03320       -0.00960        0.03060
C          0.98250       -0.60640       -1.06610
C          1.97590       -1.30640       -0.11710
C          1.06480       -2.05140        0.88360
C          0.79820       -0.57720        1.25270
O          2.19070       -0.28340        0.90870
H          0.94190        1.94670        0.16120
H         -0.46540        1.88710       -0.91510
H         -0.69650        1.87730        0.83880
H         -0.97080       -0.44330       -0.03080
H          0.48340       -1.29910       -1.74920
H          1.47440        0.17140       -1.65580
H          2.89540       -1.72710       -0.52430
H          0.24330       -2.66620        0.50520
H          1.63760       -2.57080        1.65220
H          0.50760       -0.24630        2.25070
