19
gdb 17172	3.9245	1.78639	1.53932	1.9981	75.19	-0.2249	0.0853	0.3101	910.401	0.166054	-327.833427	-327.826207	-327.825263	-327.86486	28.293
C         -0.00460        1.55590       -0.06260
C         -0.03140        0.02690        0.05950
C          0.69750       -0.48030        1.28020
C          0.44700       -0.21600        2.76600
N          1.64850       -1.14830        2.85960
C          1.10730       -1.94720        1.64400
C          2.46300       -1.87080        0.93580
C          2.23810       -0.49940        1.57900
H          1.02240        1.92810       -0.13980
H         -0.54970        1.89140       -0.94970
H         -0.46420        2.03080        0.81050
H         -1.07180       -0.32260        0.09740
H          0.40940       -0.42520       -0.83880
H          0.64440        0.78760        3.15880
H         -0.46180       -0.63000        3.21790
H          0.44450       -2.80100        1.80130
H          3.26370       -2.47700        1.36730
H          2.46180       -1.91900       -0.15580
H          2.91290        0.35530        1.66160
