16
gdb 8657	2.58597	1.714	1.41519	2.8019	67.49	-0.2549	-0.0403	0.2146	963.614	0.125667	-383.709712	-383.70021	-383.699266	-383.743622	33.583
C         -0.26340        1.61710        0.04410
C         -0.03930        0.10320        0.04230
C          0.67030       -0.40900       -1.22840
O          0.06720        0.06660       -2.43130
C          2.13080        0.09750       -1.31300
O          2.79150        0.42200       -0.36660
C          0.75080       -1.87350       -1.23380
C          0.81340       -3.07440       -1.25640
H          0.68650        2.15820        0.05160
H         -0.82860        1.92970       -0.83740
H         -0.82350        1.91340        0.93550
H          0.57010       -0.19680        0.90010
H         -0.99560       -0.42530        0.12660
H         -0.70050       -0.48460       -2.61680
H          2.50890        0.11850       -2.35630
H          0.86940       -4.13540       -1.27060
