14
gdb 1492	6.53172	1.29933	1.10575	3.6593	59.35	-0.2959	-0.0845	0.2113	1020.6226	0.111499	-324.605875	-324.597918	-324.596974	-324.638709	26.677
C         -0.00160        1.57590        0.04200
C         -0.00540        0.04660       -0.01070
C          0.71220       -0.57480        1.18750
C          0.72710       -2.08420        1.16790
O          0.23640       -2.77950        0.31500
C          1.41810       -2.70850        2.32240
N          1.96010       -3.18030        3.22850
H          1.01930        1.97310        0.04530
H         -0.51950        1.99640       -0.82450
H         -0.50390        1.94590        0.94250
H         -1.03300       -0.33000       -0.04440
H          0.47220       -0.30310       -0.93180
H          1.75710       -0.23800        1.25540
H          0.25770       -0.26420        2.13980
