15
gdb 12653	2.92904	2.09448	1.42662	3.5086	61.32	-0.2175	-0.0924	0.1251	873.9281	0.118643	-399.818397	-399.810768	-399.809824	-399.850681	27.622
C          0.19210        1.50750       -0.14880
C         -0.10470        0.01460        0.05130
N          0.33060       -0.79540       -1.11280
C          1.72020       -1.23050       -0.86670
C          1.85910       -1.35850        0.64460
O          2.68720       -1.94520        1.28570
C          0.66530       -0.55090        1.24230
O          0.44070       -0.42030        2.41500
H          1.26080        1.68590       -0.30670
H         -0.34440        1.87460       -1.02690
H         -0.12000        2.07540        0.73190
H         -1.17760       -0.11910        0.21530
H         -0.25920       -1.61780       -1.17800
H          1.94840       -2.17040       -1.37370
H          2.43100       -0.48020       -1.24020
