17
gdb 1353	4.16709	2.34578	2.25403	1.2671	59.62	-0.2499	0.0829	0.3328	702.565	0.147852	-346.863396	-346.856044	-346.855099	-346.894725	27.023
C         -0.00830        1.52270        0.08330
C         -0.03180       -0.00400       -0.02510
C         -1.45430       -0.55790       -0.03020
C          0.82180       -0.50890       -1.21210
O          2.11030       -0.68450       -0.64530
C          1.84790       -1.18370        0.64150
O          0.68200       -0.54140        1.11140
H          1.02080        1.88760        0.02270
H         -0.59290        1.98440       -0.71950
H         -0.42890        1.83800        1.04220
H         -2.00320       -0.21220       -0.91300
H         -1.44300       -1.65160       -0.03530
H         -1.99770       -0.22560        0.85890
H          0.43020       -1.46220       -1.60090
H          0.89940        0.20820       -2.03170
H          1.69080       -2.27820        0.61110
H          2.69670       -0.94790        1.29180
