18
gdb 6512	3.01619	1.81163	1.34817	1.781	74.81	-0.2554	0.0291	0.2845	978.479	0.149181	-347.766259	-347.756816	-347.755872	-347.799577	34.813
C         -0.04090        1.54040       -0.05640
C         -0.06260        0.02970        0.06180
C         -1.24100       -0.62330       -0.63040
O          1.19600       -0.62980       -0.14160
C          0.62850       -0.67340        1.18440
C          1.40960        0.04730        2.26860
C          0.14820       -1.97260        1.61030
C         -0.22480       -3.03770        2.02570
H          0.87020        1.97680        0.35190
H         -0.10280        1.82390       -1.11280
H         -0.90340        1.97990        0.45570
H         -1.21400       -0.39170       -1.70060
H         -1.22330       -1.70630       -0.50700
H         -2.18520       -0.24030       -0.22850
H          1.80420        0.99960        1.91500
H          0.77410        0.22520        3.14150
H          2.25110       -0.57480        2.58720
H         -0.55820       -3.98330        2.37620
