20
gdb 8702	2.28808	1.77125	1.31552	1.7348	71.78	-0.2413	-0.0283	0.2131	1054.3642	0.172927	-386.145553	-386.135405	-386.13446	-386.180542	35.642
C          0.12770        1.62000        0.10990
C          0.11010        0.08970        0.03980
C          0.71120       -0.49160       -1.26140
C         -0.08920       -0.10230       -2.50620
O          2.06500       -0.03820       -1.27700
C          2.83340       -0.39090       -2.41110
C          0.73050       -2.01340       -1.06970
O         -0.05570       -2.78830       -1.54710
H          1.14030        1.99930       -0.04300
H         -0.52490        2.06970       -0.64410
H         -0.22210        1.95570        1.09060
H          0.68590       -0.31440        0.88140
H         -0.91310       -0.28870        0.14190
H         -0.04820        0.97690       -2.67030
H          0.28630       -0.60680       -3.39940
H         -1.13120       -0.40470       -2.38220
H          2.79360       -1.46880       -2.62840
H          2.52200        0.15340       -3.31220
H          3.86740       -0.12260       -2.18150
H          1.55770       -2.34720       -0.40020
