17
gdb 2399	4.82894	2.10641	1.84174	1.2091	64.72	-0.2473	0.0807	0.328	755.6933	0.148287	-309.686187	-309.67914	-309.678196	-309.717038	26.827
O         -0.18090        1.43060       -0.08620
C         -0.08440        0.03760       -0.01220
C         -0.51540       -0.67840        1.24840
C         -1.37150       -0.72220        0.00970
C         -2.74470       -0.08350       -0.22810
C         -2.95260       -1.09080       -1.39940
C         -1.72460       -1.90790       -0.89650
H          0.49130        1.80740        0.49080
H          0.74270       -0.39460       -0.57860
H          0.02320       -1.57250        1.54880
H         -0.86530       -0.05820        2.06880
H         -3.44010       -0.24920        0.60080
H         -2.73850        0.97930       -0.47740
H         -3.90940       -1.61630       -1.43260
H         -2.77430       -0.63260       -2.37530
H         -0.97970       -2.20060       -1.64250
H         -2.01620       -2.79840       -0.32990
