15
gdb 13773	3.72627	1.45788	1.19441	2.4605	61.73	-0.2859	-0.0097	0.2763	987.1119	0.117079	-399.780591	-399.772271	-399.771327	-399.814074	29.551
C          0.56120        0.35930       -0.61490
C          0.14430       -0.06590        0.79010
O         -0.00750        1.05830        1.65360
C         -1.13580       -0.89010        0.86840
O         -2.12640       -0.74450       -0.15330
C         -1.52900       -2.03100        0.01130
C         -0.71700       -2.54400       -1.07070
N         -0.08650       -3.00880       -1.92090
H          1.42270        1.02650       -0.53530
H          0.83890       -0.49280       -1.23840
H         -0.25540        0.88930       -1.11510
H          0.94160       -0.66040        1.25310
H         -0.59940        1.68350        1.21950
H         -1.54770       -0.90720        1.87860
H         -2.18450       -2.78700        0.44230
