18
gdb 7633	4.17027	1.31201	1.26937	4.1042	67.75	-0.2731	0.0123	0.2853	1042.9355	0.152804	-384.980069	-384.971717	-384.970773	-385.013097	30.557
C          0.02740        1.62310       -0.09600
C          0.02660        0.09790        0.09150
C         -1.36270       -0.40120        0.51230
C          0.56020       -0.57730       -1.16870
C          0.53820       -2.11150       -1.31420
C         -0.41210       -1.82750       -2.47740
O         -1.01620       -2.44090       -3.29630
O         -0.37160       -0.46620       -2.31140
H          1.02760        1.99650       -0.33970
H         -0.64640        1.91040       -0.90970
H         -0.30740        2.12760        0.81510
H          0.74490       -0.15240        0.88600
H         -2.10090       -0.19800       -0.26890
H         -1.37750       -1.47470        0.72300
H         -1.68600        0.11260        1.42220
H          1.51560       -0.13000       -1.45980
H          1.47810       -2.57960       -1.61140
H          0.09200       -2.67780       -0.49610
