13
gdb 20470	6.49406	1.42415	1.26167	3.2596	59.72	-0.252	-0.0068	0.2452	909.31	0.097365	-394.751119	-394.74474	-394.743795	-394.782329	23.032
C          0.93430        1.04400       -0.02700
O          0.15360        0.15920       -0.82980
C         -0.41140        0.61960        0.40080
C         -0.61720       -0.40810        1.43870
C         -0.14900       -1.70130        1.48760
N         -0.64830       -2.17550        2.65200
N         -1.38670       -1.25050        3.29170
N         -1.37000       -0.17820        2.55400
H          1.80510        0.59870        0.45120
H          1.07820        2.04340       -0.43490
H         -1.22670        1.33450        0.30160
H          0.45030       -2.28770        0.81340
H         -0.54930       -3.09260        3.05740
