14
gdb 21077	3.8273	1.95502	1.30477	1.7857	74.06	-0.2303	-0.0187	0.2116	886.0384	0.107775	-341.577478	-341.570001	-341.569057	-341.609949	26.826
C          0.01720        1.39930        0.01110
N         -0.00000       -0.04880        0.03150
N          0.04370       -0.73430       -1.11940
C          0.06940       -2.01900       -0.76110
C          0.04740       -2.17130        0.63260
C          0.00460       -0.87250        1.12690
C         -0.03550       -0.38870        2.45070
C         -0.06980        0.02740        3.58090
H          1.03540        1.77620       -0.12950
H         -0.60710        1.74390       -0.81420
H         -0.37520        1.77250        0.95760
H          0.09720       -2.78510       -1.52170
H          0.05210       -3.07720        1.21530
H         -0.09970        0.38600        4.58000
