13
gdb 19007	5.64866	1.95713	1.73667	3.1565	56.87	-0.2481	-0.0095	0.2386	723.2172	0.098087	-398.5604	-398.555136	-398.554191	-398.589709	21.157
O         -0.07890       -0.00560       -0.03890
C          0.00890        1.18250       -0.00470
O         -1.07500        2.03890        0.00640
C         -0.46830        3.32730        0.04930
C          0.79170        3.36200       -0.85390
N          1.39780        4.35870        0.09960
C          0.77040        3.31100        0.98190
C          1.19200        2.12660        0.03520
H         -1.19840        4.13040        0.06310
H          0.85650        3.45610       -1.93800
H          2.41400        4.24220        0.10810
H          0.81000        3.34480        2.07080
H          2.19880        1.71660        0.03540
