15
gdb 21038	3.73046	1.85554	1.25554	0.5994	66.25	-0.1901	0.0173	0.2075	935.8559	0.120995	-392.164549	-392.156433	-392.155489	-392.197061	28.943
C          0.11840        1.32700        0.01590
N         -0.02640       -0.10770       -0.00470
N          0.10760       -0.81910       -1.12890
C          0.08040       -2.08120       -0.71120
N          0.22300       -3.19140       -1.54830
C         -0.05390       -2.08610        0.69540
N         -0.19910       -3.20100        1.52500
N         -0.10870       -0.82740        1.11940
H          1.16740        1.62550        0.13130
H         -0.26530        1.72620       -0.92370
H         -0.45870        1.72000        0.85380
H         -0.49680       -3.88640       -1.38250
H          0.21010       -2.91730       -2.52320
H          0.50430       -3.90650        1.33680
H         -0.16460       -2.93750        2.50230
