16
gdb 8841	4.73955	1.23996	0.9951	2.0034	65.44	-0.2616	-0.0263	0.2353	1122.4845	0.129618	-417.086522	-417.077612	-417.076668	-417.121916	30.509
C         -0.00240        1.50980        0.01180
N         -0.00940        0.04740       -0.02740
C         -0.01680       -0.67110        1.17300
N         -0.01770       -0.08340        2.29800
C         -0.00840       -0.65450       -1.21670
O         -0.01390       -1.87350       -1.27270
C         -0.00020        0.14860       -2.51710
O          0.00030       -0.71700       -3.61000
H          0.89360        1.91160       -0.46920
H         -0.88860        1.92030       -0.47990
H         -0.00720        1.80160        1.06060
H         -0.02130       -1.74530        0.99230
H         -0.02350       -0.76750        3.05150
H         -0.87980        0.81200       -2.53650
H          0.88500        0.80460       -2.52990
H         -0.00540       -1.60840       -3.22280
