15
gdb 1078	6.90896	1.94575	1.696	4.0161	62.11	-0.2201	0.0337	0.2538	758.3035	0.12739	-304.738393	-304.731835	-304.730891	-304.769404	23.624
C          0.00040        1.55220        0.10570
C         -0.02260        0.03150       -0.06390
N         -1.36410       -0.52920       -0.00880
C         -2.14780       -0.69220        1.11420
C         -3.33740       -1.20290        0.66510
N         -3.31240       -1.35770       -0.70100
C         -2.12060       -0.94320       -1.06670
H          1.02860        1.92220        0.04790
H         -0.58790        2.03870       -0.67740
H         -0.41410        1.84590        1.07420
H          0.40670       -0.25030       -1.02980
H          0.58700       -0.44890        0.70890
H         -1.78520       -0.44150        2.09780
H         -4.20550       -1.47350        1.24700
H         -1.73770       -0.92180       -2.07710
