18
gdb 15339	3.81591	1.02094	0.87271	2.0192	78.16	-0.2438	0.0302	0.274	1376.0343	0.151158	-347.766353	-347.756844	-347.7559	-347.802403	32.474
C          0.18830        1.53750        0.07510
C         -0.36930        0.17150       -0.34260
C          0.51780       -0.51420       -1.35090
O          1.75490       -1.04470       -0.87550
C          0.76590       -1.97420       -1.36130
C          0.16820       -2.87690       -0.41520
C         -0.33060       -3.66550        0.34690
C         -0.92660       -4.61330        1.27610
H          1.18180        1.42600        0.51920
H          0.27800        2.21200       -0.78360
H         -0.46270        2.01860        0.81090
H         -0.47980       -0.47820        0.53060
H         -1.36750        0.28970       -0.78390
H          0.60520       -0.00520       -2.31470
H          1.03220       -2.42590       -2.31750
H         -2.00750       -4.45860        1.36650
H         -0.76340       -5.64590        0.94910
H         -0.49130       -4.50890        2.27600
