21
gdb 7840	3.6794	1.11746	1.02308	2.5515	75.58	-0.2199	0.0682	0.2881	1255.9564	0.186878	-366.229466	-366.219959	-366.219015	-366.263823	34.967
C         -0.08390        1.58740        0.13940
C         -0.12250        0.07030       -0.04370
O          0.91200       -0.56590        0.70460
C         -1.50090       -0.52160        0.29750
C         -1.58150       -2.01600        0.05900
C         -2.89470       -2.70920       -0.07900
N         -1.98490       -2.62300       -1.21500
C         -2.38950       -1.79260       -2.33730
H          0.91730        1.96960       -0.07680
H         -0.79870        2.08750       -0.52230
H         -0.33960        1.86020        1.17140
H          0.11680       -0.17090       -1.08650
H          0.78070       -0.33900        1.63240
H         -1.70550       -0.32450        1.36100
H         -2.27700        0.01180       -0.26100
H         -0.76580       -2.55890        0.53170
H         -3.05630       -3.70030        0.33860
H         -3.78300       -2.07610       -0.09420
H         -2.99870       -0.91340       -2.07170
H         -1.50110       -1.44530       -2.87580
H         -2.98070       -2.40520       -3.02600
