18
gdb 2529	3.51081	1.85182	1.30993	3.8602	68.04	-0.3136	0.0354	0.349	961.5919	0.1592	-289.873479	-289.864869	-289.863925	-289.906419	30.235
C         -0.07690        1.56720        0.06990
C          0.01100        0.04140        0.00350
C          0.72330       -0.49310       -1.26040
C          0.88140       -2.03100       -1.23670
C          1.67060       -2.59360       -2.42030
C          0.01290       -0.06640       -2.47200
N         -0.56110        0.26060       -3.42100
H          0.91950        2.02270        0.06170
H         -0.63640        1.97000       -0.77970
H         -0.58110        1.88580        0.98670
H          0.56120       -0.34030        0.87140
H         -0.99300       -0.39600        0.05140
H          1.72530       -0.04390       -1.30790
H          1.38040       -2.29100       -0.29610
H         -0.11550       -2.48520       -1.19900
H          1.18190       -2.35940       -3.37070
H          2.68460       -2.18000       -2.45350
H          1.75700       -3.68140       -2.34520
