16
gdb 15416	4.70016	0.9173	0.82005	1.3704	62.82	-0.2637	-0.0448	0.2188	1338.8491	0.127914	-420.851937	-420.843234	-420.84229	-420.886272	29.923
O          0.20850        1.33870       -0.18630
C          0.03040       -0.04900        0.02990
C         -1.38980       -0.51940       -0.31520
C         -1.52270       -2.01750       -0.18330
O         -1.67690       -2.56430        1.12100
C         -2.76100       -2.74220        0.20140
C         -4.02800       -2.02220        0.53110
O         -5.10400       -2.35690        0.10590
H         -0.31630        1.81200        0.46700
H          0.75480       -0.54800       -0.62370
H          0.27400       -0.33660        1.06340
H         -2.10940       -0.01460        0.33770
H         -1.61810       -0.22400       -1.34590
H         -0.83760       -2.58970       -0.81390
H         -2.90510       -3.75330       -0.17720
H         -3.90270       -1.15690        1.21670
