17
gdb 19399	3.07667	2.16196	1.60526	1.5821	67.95	-0.2345	0.0698	0.3043	848.7743	0.142004	-363.78978	-363.782561	-363.781617	-363.820943	28.014
C         -0.06650        1.59320       -0.10890
C          0.04720        0.08250        0.02630
C          1.04870       -0.67110       -0.87630
N          2.40190       -0.20420       -0.49350
C          1.73530       -1.27610        0.29940
C          0.80270       -0.53460        1.23630
C          1.00190       -0.07420        2.60640
O          0.11710       -1.16950        2.29730
H          0.92500        2.05260       -0.09510
H         -0.56010        1.86680       -1.04780
H         -0.65790        2.01740        0.70960
H         -0.93490       -0.40030       -0.02550
H          0.86000       -1.09250       -1.85580
H          3.06710       -0.66650       -1.11320
H          2.18330       -2.25220        0.43610
H          1.90980       -0.34400        3.14370
H          0.50870        0.83310        2.95200
