18
gdb 8403	3.71945	1.75882	1.51599	2.0526	67.71	-0.2431	0.0776	0.3207	900.1436	0.15285	-384.873568	-384.865822	-384.864878	-384.905498	29.926
C         -0.05370        1.53620        0.01610
C         -0.04250        0.00610        0.04870
O          0.55120       -0.49360        1.23990
C         -1.42840       -0.57320       -0.07930
C         -2.61680       -0.26350       -1.02830
C         -3.11370       -1.14220        0.14320
C         -1.87960       -2.05590       -0.01440
O         -2.33910       -0.29060        1.07910
H          0.95390        1.91440        0.20450
H         -0.39220        1.90980       -0.95590
H         -0.72680        1.92690        0.78550
H          0.57200       -0.37850       -0.77490
H         -0.10800       -0.38500        1.93740
H         -2.96900        0.76830       -1.01610
H         -2.59930       -0.70070       -2.02970
H         -4.13330       -1.39460        0.43250
H         -1.79430       -2.65510       -0.92440
H         -1.57510       -2.59310        0.88340
