20
gdb 16337	2.99324	1.76118	1.37223	1.7848	74.52	-0.2271	0.0745	0.3016	1000.0849	0.175956	-348.972329	-348.963885	-348.962941	-349.005073	31.95
C          0.10190        1.51710        0.29820
C          0.01580        0.04040       -0.11460
C         -1.37990       -0.51520       -0.05030
C         -2.02760       -1.04040        1.22210
C         -1.91330       -1.92610        0.02060
O         -2.97580       -1.66740       -0.89910
C         -2.46900       -0.31510       -1.11780
C         -3.53230        0.75590       -0.98670
H          1.13250        1.88140        0.24590
H         -0.50740        2.14960       -0.35620
H         -0.25680        1.65880        1.32270
H          0.40750       -0.07930       -1.13370
H          0.66910       -0.55660        0.53380
H         -1.32090       -1.24250        2.02230
H         -3.00870       -0.71060        1.55130
H         -1.43320       -2.89780       -0.01400
H         -2.00920       -0.27240       -2.11580
H         -3.96000        0.77830        0.01900
H         -3.10750        1.74110       -1.20760
H         -4.34280        0.56910       -1.69850
