20
gdb 8281	5.26586	0.9446	0.87473	2.8304	76.52	-0.246	-0.0187	0.2273	1353.7639	0.175676	-349.011502	-349.002658	-349.001714	-349.045885	31.875
C          0.15750        1.64760        0.18510
C          0.10390        0.13120        0.09120
C          1.02420       -0.59610       -0.93090
C          1.24980       -1.71440        0.12320
C          2.64290       -2.33500        0.24920
C          2.70120       -3.36250        1.35590
O          3.44360       -3.32330        2.30290
C          0.76050       -0.72080        1.21440
H          1.18620        1.99590        0.33270
H         -0.22570        2.11730       -0.72780
H         -0.44220        2.01610        1.02500
H         -0.93220       -0.19510       -0.05600
H          0.60270       -0.88150       -1.89840
H          1.94440       -0.02690       -1.10570
H          0.50690       -2.50910       -0.01620
H          2.89320       -2.84650       -0.69240
H          3.40440       -1.57160        0.43720
H          1.96720       -4.19620        1.24050
H          1.60380       -0.19080        1.67160
H          0.12070       -1.10560        2.01260
