18
gdb 13172	3.56144	1.41762	1.07141	4.6687	72.09	-0.2585	0.0231	0.2815	1096.5316	0.154846	-343.979985	-343.971611	-343.970667	-344.013131	30.539
N          0.00630        1.47050        0.12230
C         -0.07710        0.01320       -0.02520
C         -1.49120       -0.39650        0.01530
N         -2.59480       -0.73840        0.00310
C          0.59640       -0.56990       -1.27750
C          2.14200       -0.43610       -1.38950
C          2.17890       -1.87170       -1.98200
C          0.75640       -2.11050       -1.40720
H          0.98570        1.74110        0.13150
H         -0.41410        1.92170       -0.68600
H          0.40590       -0.42720        0.85810
H          0.10650       -0.15650       -2.16620
H          2.54210        0.37940       -1.99620
H          2.61220       -0.39740       -0.40010
H          2.17790       -1.85740       -3.07520
H          2.97870       -2.53440       -1.64540
H          0.79160       -2.59100       -0.42380
H          0.03180       -2.64290       -2.02540
