22
gdb 11468	3.5811	1.36031	1.06384	1.182	78.66	-0.2459	0.0849	0.3308	1200.6026	0.200625	-350.231253	-350.222254	-350.22131	-350.265407	33.187
C          0.09880        1.59860       -0.03930
C          0.02060        0.06990       -0.01700
C          0.76770       -0.55260        1.15420
C          0.72050       -2.09570        1.23040
C          2.12050       -2.48120        1.76880
C          2.84300       -1.12100        1.92580
C          4.31930       -1.11910        1.57050
O          2.15170       -0.23570        1.05280
H          1.14010        1.92790       -0.08320
H         -0.42950        2.00950       -0.90500
H         -0.35090        2.03010        0.86200
H         -1.02620       -0.25540        0.03280
H          0.43720       -0.34260       -0.94450
H          0.37460       -0.13310        2.09900
H         -0.09410       -2.44340        1.87110
H          0.55560       -2.51590        0.23360
H          2.07750       -3.02490        2.71610
H          2.65610       -3.11270        1.05360
H          2.71650       -0.76730        2.96460
H          4.46220       -1.45890        0.53980
H          4.73890       -0.11340        1.66300
H          4.87440       -1.78630        2.23740
