14
gdb 20450	6.26873	1.49793	1.31568	3.643	62.99	-0.2493	0.009	0.2583	900.0255	0.111244	-374.900401	-374.894059	-374.893115	-374.931326	23.328
C          0.94300        1.13950        0.04780
N          0.37340        0.05130       -0.75480
C         -0.40290        0.58240        0.37840
C         -0.59460       -0.36460        1.49150
N         -1.30860       -0.18440        2.59070
C         -1.12160       -1.35530        3.26240
N         -0.34780       -2.24100        2.65590
N         -0.01800       -1.58310        1.51930
H          1.79860        0.86170        0.65580
H          0.98180        2.14060       -0.37240
H          0.00700        0.39990       -1.63540
H         -1.25840        1.22280        0.18610
H         -1.57000       -1.56030        4.22310
H          0.54210       -2.01040        0.79900
