19
gdb 6782	4.6916	0.89321	0.79371	3.5852	70.77	-0.2392	0.0392	0.2784	1463.3249	0.16355	-402.22685	-402.216844	-402.2159	-402.263611	33.514
C         -0.18050        1.33480       -0.25610
O         -0.05150       -0.04510       -0.00420
C          0.71000       -0.72280       -0.98550
C          0.70640       -2.20150       -0.62990
N         -0.64530       -2.72080       -0.58070
C         -1.03610       -3.83750       -1.26060
C         -2.50200       -4.21120       -1.09540
O         -0.27290       -4.50040       -1.94150
H          0.79840        1.83860       -0.27020
H         -0.67980        1.52890       -1.21830
H         -0.78440        1.76040        0.54890
H          0.27010       -0.56970       -1.98460
H          1.74370       -0.34040       -1.00890
H          1.24760       -2.78280       -1.37940
H          1.20700       -2.33760        0.33780
H         -1.31740       -2.18280       -0.05930
H         -2.93550       -4.37410       -2.08490
H         -2.56480       -5.15820       -0.55150
H         -3.09040       -3.45970       -0.56250
