16
gdb 2074	4.31465	2.53414	1.76931	2.5308	60.57	-0.2122	-0.0149	0.1973	721.1196	0.139234	-325.798735	-325.792308	-325.791364	-325.829108	24.367
O          0.00890       -0.08290       -0.04250
C         -0.01940        1.12600       -0.03480
C         -1.31610        1.92640       -0.02150
C         -1.29090        3.07770       -1.04700
C          0.00920        3.88620       -0.92450
N          1.21950        3.06910       -1.02980
C          1.25000        1.98110       -0.04430
H         -2.15440        1.24290       -0.17760
H         -1.41820        2.35210        0.98790
H         -1.35940        2.66290       -2.06140
H         -2.16580        3.72480       -0.91170
H          0.05070        4.66490       -1.69310
H          0.03670        4.39830        0.04770
H          1.27450        2.67030       -1.96290
H          1.37180        2.42810        0.95400
H          2.11150        1.33370       -0.22460
