21
gdb 11674	3.35944	1.61761	1.35777	1.9426	78.71	-0.2204	0.0811	0.3015	1029.5731	0.189061	-329.057308	-329.049001	-329.048057	-329.089922	31.807
C          0.42150        1.29790        0.27430
C          0.16870       -0.20630        0.11780
C         -1.29750       -0.55970        0.00920
C         -2.44580       -0.33230        1.02570
N         -3.18870       -1.02330       -0.12960
C         -2.35610       -0.08520       -1.02100
C         -1.95660       -1.96160       -0.15930
C         -1.75480       -2.85640       -1.36780
H          1.49130        1.51350        0.35070
H          0.02920        1.85640       -0.58220
H         -0.06290        1.68970        1.17500
H          0.69080       -0.57810       -0.77400
H          0.60060       -0.74610        0.97120
H         -2.43840       -0.91500        1.95220
H         -2.78490        0.69210        1.20250
H         -2.68640        0.95610       -0.96830
H         -2.27310       -0.40460       -2.06060
H         -1.93360       -2.57880        0.74770
H         -1.67210       -2.31760       -2.31430
H         -0.84020       -3.44580       -1.24060
H         -2.59170       -3.55760       -1.45240
