12
gdb 21295	7.26346	1.36487	1.1574	5.3829	52.55	-0.2497	0.0211	0.2708	950.4039	0.08407	-451.810975	-451.803944	-451.802999	-451.842504	24.689
C         -0.04190        1.38460        0.06110
O          0.01050       -0.05230       -0.01200
C          0.61930       -0.53820       -1.07900
N          1.15970        0.13810       -2.03980
O          1.66840       -0.86620       -2.92380
C          1.40110       -2.11570       -2.43710
O          1.70320       -3.14940       -2.95660
N          0.72230       -1.88940       -1.24360
H          0.96940        1.79840        0.08070
H         -0.58060        1.78680       -0.80040
H         -0.56970        1.60850        0.98680
H          0.37980       -2.60890       -0.63090
