19
gdb 11909	3.66776	1.714	1.50847	2.3658	70.75	-0.2424	0.0741	0.3164	923.5713	0.16661	-365.043014	-365.035284	-365.03434	-365.075288	29.449
C          0.88910        1.26980       -0.23000
C         -0.10500        0.13670        0.02880
C         -0.13700       -0.92700       -1.08360
C          0.98310       -1.85720       -0.64700
C          1.42400       -3.04480       -1.40590
N          2.29800       -1.85560       -1.31380
C          0.97840       -1.76860        0.87470
O          0.24390       -0.59160        1.21240
H          1.88660        0.87560       -0.44930
H          0.56550        1.88660       -1.07580
H          0.96280        1.90920        0.65380
H         -1.09930        0.56080        0.20840
H         -1.09770       -1.45390       -1.07040
H          0.01210       -0.51570       -2.08620
H          1.79340       -3.92270       -0.88130
H          0.93270       -3.26220       -2.35150
H          2.24640       -1.33010       -2.18390
H          0.47630       -2.63110        1.33310
H          2.00410       -1.71660        1.25860
