15
gdb 19318	4.74581	1.74961	1.5356	1.9608	72.61	-0.2206	0.0222	0.2428	842.1467	0.118022	-325.399177	-325.39245	-325.391506	-325.429666	27.067
C          0.08380       -1.16750        0.02650
C          0.03850        0.03520        0.01110
C         -0.01680        1.45320       -0.00710
C          0.26160        2.27500       -1.24850
C          1.09540        2.50540       -0.02700
C          0.32860        3.22110        1.09450
C         -1.08140        3.54140        0.79070
N         -0.72960        2.15380        1.15540
H          0.12320       -2.22820        0.04520
H          0.75940        1.69320       -2.01700
H         -0.43110        3.00960       -1.64300
H          2.16340        2.33850       -0.00120
H          0.82020        3.55240        2.00310
H         -1.64970        4.02230        1.58210
H         -1.42250        3.79460       -0.20580
