15
gdb 5073	3.34843	1.97466	1.25648	2.6253	64.37	-0.1821	0.0462	0.2283	920.9493	0.118155	-399.82668	-399.818274	-399.81733	-399.859099	30.604
C         -0.05670        1.52340        0.08210
C          0.00600        0.03630        0.00380
C          0.01340       -0.79770       -1.09550
O         -0.09080       -0.45750       -2.43230
C          0.06600       -2.14490       -0.64180
O          0.07820       -3.24390       -1.44630
C          0.10100       -2.11660        0.73020
N          0.07080       -0.78310        1.10280
H          0.86440        1.96700        0.48220
H         -0.21370        1.92840       -0.92080
H         -0.88620        1.86930        0.71100
H          0.76970       -0.16220       -2.74840
H         -0.05290       -2.91830       -2.34540
H          0.14330       -2.91070        1.45520
H          0.07550       -0.45980        2.05310
