19
gdb 12677	2.77494	1.92937	1.49803	2.3372	70.96	-0.2093	-0.0181	0.1913	938.7344	0.16506	-365.081181	-365.072765	-365.07182	-365.114464	31.052
C          0.38080        1.69710       -0.00060
C          0.01150        0.20860       -0.07980
N          0.52310       -0.44170       -1.29570
C         -0.42760       -1.36850       -1.89990
C          1.79580       -1.08870       -0.91240
C          1.62280       -1.56960        0.53860
C          0.62800       -0.55800        1.11120
O          0.37450       -0.36680        2.27190
H          1.46380        1.83940       -0.07290
H         -0.08640        2.24450       -0.82290
H          0.04350        2.11570        0.95170
H         -1.07840        0.11290       -0.02600
H         -1.33390       -0.82600       -2.18540
H          0.00540       -1.79170       -2.81140
H         -0.73160       -2.20860       -1.24730
H          2.03490       -1.89050       -1.61390
H          2.60680       -0.35260       -0.97080
H          1.15930       -2.56290        0.58280
H          2.53640       -1.60830        1.13570
