16
gdb 21043	3.78522	1.82777	1.2535	2.4033	68.1	-0.2025	0.0239	0.2265	955.4207	0.13199	-376.143548	-376.135287	-376.134343	-376.17638	29.332
C          0.07710        1.39910       -0.06820
N          0.06380       -0.04120        0.01760
N          0.13640       -0.78840       -1.13000
C          0.10790       -2.02330       -0.65010
N          0.22250       -3.14350       -1.45150
N          0.01440       -2.12030        0.70660
C         -0.00960       -0.85140        1.09300
C         -0.10380       -0.38710        2.50860
H          1.01070        1.74530       -0.52160
H         -0.75890        1.74950       -0.68050
H         -0.01180        1.82010        0.93410
H         -0.06410       -2.98700       -2.40690
H         -0.20660       -3.96090       -1.04310
H          0.76940        0.20510        2.80310
H         -0.99540        0.22550        2.68050
H         -0.15810       -1.26380        3.15450
