14
gdb 4434	3.49496	1.88602	1.23933	5.6601	61.02	-0.1962	0.0411	0.2373	922.112	0.107639	-415.916309	-415.908557	-415.907613	-415.948135	28.233
C          0.09820        1.49110        0.02300
C         -0.07070        0.01950        0.03660
C         -1.13480       -0.79800       -0.03080
N         -2.51670       -0.58260       -0.05240
N         -0.63820       -2.10680       -0.00670
C          0.73370       -2.08890        0.13980
O          1.50590       -3.00300        0.23980
O          1.08420       -0.75830        0.14900
H          0.78890        1.80330       -0.76870
H         -0.86300        1.98080       -0.15780
H          0.49700        1.86830        0.97240
H         -2.74660        0.38810        0.11700
H         -2.94540       -0.87160       -0.92720
H         -1.18510       -2.93550        0.15090
