18
gdb 14178	3.8185	1.66343	1.64074	0.4669	67.19	-0.2248	0.0743	0.2991	884.7699	0.153588	-384.923963	-384.916219	-384.915275	-384.955567	29.827
C         -0.07260        1.58550        0.04220
C          0.02350        0.08190       -0.02780
O         -1.11640       -0.60490        0.42970
C          0.67080       -0.66840       -1.17310
C          1.62990        0.06120       -2.11220
C          2.92140        0.15340       -1.26990
O          2.50860        0.11630        0.10190
C          1.33280       -0.64810        0.18610
H          0.87690        2.06120       -0.20800
H         -0.85210        1.96020       -0.62900
H         -0.33020        1.89460        1.06270
H         -1.20780       -0.42390        1.37240
H          0.14520       -1.55000       -1.51860
H          1.78830       -0.50560       -3.03340
H          1.26440        1.05300       -2.39610
H          3.58510       -0.69770       -1.48430
H          3.48550        1.07790       -1.42120
H          1.37730       -1.51440        0.84060
