17
gdb 16315	3.12261	1.93658	1.38346	3.5213	69.02	-0.2342	-0.0138	0.2205	929.3642	0.141586	-363.8401	-363.832257	-363.831313	-363.872495	29.073
C          0.04190        1.51190        0.29860
C          0.04250        0.03820       -0.13530
C         -1.33890       -0.54090       -0.18810
N         -2.10690       -0.92060        1.05500
C         -1.90650       -1.92640        0.00260
C         -3.04410       -1.69330       -1.00020
C         -2.41260       -0.28800       -1.22950
O         -2.56700        0.56250       -2.05770
H          1.05880        1.91460        0.30870
H         -0.55820        2.11120       -0.39140
H         -0.38130        1.62830        1.30120
H          0.49920       -0.05060       -1.12860
H          0.66000       -0.56130        0.54660
H         -1.39260       -1.07180        1.76990
H         -1.36060       -2.84400        0.18030
H         -2.98400       -2.29170       -1.91370
H         -4.05470       -1.72750       -0.58870
