13
gdb 2882	6.15657	2.09059	1.79716	1.7258	60.86	-0.2464	0.0069	0.2533	704.6804	0.101245	-307.275809	-307.269393	-307.268449	-307.306294	23.432
C          0.04030       -1.16230        0.21320
C          0.00920        0.02970        0.06410
C         -0.01790        1.48360       -0.14010
O         -0.73370        2.15220        0.90460
C          0.14470        3.00560        1.63660
C          1.45060        2.95600        0.89640
C          1.36520        2.10140       -0.11360
H          0.06210       -2.21500        0.35220
H         -0.53390        1.68830       -1.09120
H         -0.28660        4.01660        1.67290
H          0.24460        2.65460        2.67610
H          2.31700        3.53830        1.18290
H          2.13510        1.82700       -0.82160
