13
gdb 1215	6.40513	1.40078	1.31774	3.4698	56.57	-0.2542	0.0348	0.289	901.0117	0.101219	-340.637067	-340.629366	-340.628422	-340.669486	27.326
N         -0.18140        1.28850        0.22700
C         -0.04990       -0.08910        0.12490
O          0.83760       -0.71010        0.67780
N         -1.02700       -0.68200       -0.65590
C         -1.16820       -2.13380       -0.64010
C         -2.37780       -2.58450        0.04580
C         -3.39200       -2.93400        0.58750
H          0.65020        1.72980        0.58930
H         -0.60340        1.77930       -0.54700
H         -1.87750       -0.16060       -0.80440
H         -1.16340       -2.52200       -1.66640
H         -0.27410       -2.51660       -0.13840
H         -4.27600       -3.25460        1.08080
