16
gdb 18558	3.57211	2.06859	1.63196	3.4637	63.67	-0.2291	-0.0334	0.1957	812.3256	0.131703	-383.748414	-383.741782	-383.740838	-383.77958	25.401
O          0.15210        0.01320       -0.47820
C          0.05210        1.15140       -0.12950
C         -1.12090        2.02750        0.35110
C         -0.10140        3.15390        0.69600
C          0.31460        3.28350        2.17150
C          1.38250        2.18530        2.34000
O          2.05150        2.10940        1.08050
C          1.07750        2.31380        0.08660
H         -1.81850        2.27630       -0.45480
H         -1.69650        1.60660        1.18180
H         -0.30890        4.11500        0.22750
H          0.76180        4.26630        2.34600
H         -0.52090        3.16350        2.86660
H          2.13340        2.40960        3.10050
H          0.92010        1.21740        2.58800
H          1.56800        2.66290       -0.82600
