18
gdb 12708	2.84587	2.16202	1.66574	2.7855	71.67	-0.2333	-0.0161	0.2172	864.2647	0.153142	-347.805974	-347.798227	-347.797283	-347.838128	29.276
C         -0.22170        1.51790        0.03150
C          0.03530        0.02750        0.02060
C         -1.18850       -0.93880        0.19390
C         -0.45340       -1.69060        1.34070
C          0.80610       -0.81720        1.12330
C          1.78420       -1.35470        0.04210
C          1.02320       -0.52800       -1.01310
O          1.17860       -0.33380       -2.18510
H          0.71180        2.08800        0.08600
H         -0.74000        1.81960       -0.88540
H         -0.84630        1.80610        0.88400
H         -2.08810       -0.40910        0.51730
H         -1.44510       -1.52940       -0.68920
H         -0.92190       -1.53500        2.31530
H         -0.31020       -2.76610        1.20260
H          1.26600       -0.35530        1.99690
H          2.81370       -0.99760        0.15440
H          1.81520       -2.43680       -0.11830
