16
gdb 17778	6.60884	1.16519	1.12207	3.9491	67.37	-0.2781	0.0083	0.2864	1063.2457	0.13103	-383.709001	-383.702064	-383.701119	-383.741347	25.559
O         -0.11630       -0.00660       -0.01630
C         -0.06370        1.18640       -0.02270
O          1.07720        1.86660        0.19000
C          1.03950        3.28740        0.16230
C          1.82620        4.03030        1.27000
C          3.13460        3.54930        0.56630
C          2.18800        4.00380       -0.58950
C          1.83820        5.24010        0.29000
H         -0.93320        1.84870       -0.20120
H          0.02060        3.63510       -0.04090
H          1.60480        4.04090        2.33710
H          4.01990        4.16820        0.72970
H          3.36390        2.48630        0.62600
H          2.38290        3.98420       -1.66170
H          0.88450        5.74040        0.09730
H          2.64560        5.95910        0.43680
