12
gdb 21405	3.93016	2.05448	1.34919	2.3076	60.79	-0.2539	-0.0624	0.1915	820.6481	0.087208	-410.883197	-410.876928	-410.875984	-410.91377	23.509
N         -0.08400        1.33470        0.00820
C          0.02020        0.06250        0.00090
N         -1.13570       -0.71700        0.00330
C         -1.18540       -2.09450       -0.00340
O         -2.20330       -2.74700       -0.00130
N          0.08020       -2.67490       -0.01370
N          1.26640       -2.03310       -0.01710
C          1.24490       -0.74690       -0.01020
H          0.83750        1.76940        0.00530
H         -2.02440       -0.23480        0.01080
H          0.12020       -3.68190       -0.01940
H          2.20430       -0.24120       -0.01300
