15
gdb 1845	6.04704	1.9839	1.53607	2.8314	63.36	-0.2387	-0.0142	0.2245	788.4717	0.124501	-308.560759	-308.553965	-308.553021	-308.591588	25.065
C         -0.01650        1.49670        0.03980
C         -0.00170        0.00200       -0.00330
C         -0.04330       -0.77120       -1.09410
C         -0.01280       -2.24180       -0.78560
C          0.05830       -2.27630        0.75050
O          0.10070       -3.26410        1.43440
C          0.06550       -0.82560        1.25760
H          0.88100        1.88800        0.53560
H         -0.06640        1.92690       -0.96420
H         -0.87450        1.86830        0.61450
H         -0.09420       -0.38840       -2.10800
H         -0.90020       -2.78960       -1.12990
H          0.85110       -2.77020       -1.21050
H          0.96820       -0.64040        1.85550
H         -0.78240       -0.65990        1.93610
