14
gdb 15752	5.29178	1.25746	1.05139	1.9928	62.64	-0.2705	-0.0103	0.2602	1073.6674	0.106808	-415.862613	-415.854857	-415.853913	-415.895532	26.545
N         -0.30380        1.26140        0.06460
C         -0.14040        0.01770       -0.02380
O         -1.21120       -0.79160        0.25930
C         -1.03510       -2.14620        0.10290
O         -0.02960       -2.66850       -0.30210
N         -2.16230       -2.79760        0.54930
C         -3.49950       -2.59290        0.02440
C         -2.77040       -3.88950       -0.17760
H          0.56700        1.73830       -0.16440
H          0.75210       -0.54490       -0.29900
H         -4.28740       -2.51950        0.76750
H         -3.60640       -1.93160       -0.83040
H         -2.37690       -4.10580       -1.16680
H         -3.03490       -4.75810        0.41730
