16
gdb 6518	2.9725	1.86025	1.42232	6.1713	65.95	-0.2475	0.0317	0.2792	911.8276	0.128213	-379.908296	-379.899279	-379.898335	-379.941223	32.89
C          0.07250        1.53470        0.00090
C          0.03910        0.02430        0.01420
O         -1.18380       -0.52770       -0.37560
C          1.27770       -0.78400       -0.27140
C          0.73320       -0.74080        1.15150
N          1.51800       -0.10510        2.17800
C          0.05530       -1.93230        1.62450
N         -0.48050       -2.87060        2.03520
H          1.00450        1.92960        0.41200
H         -0.02390        1.90730       -1.02510
H         -0.76340        1.93310        0.58410
H         -1.23380       -0.51360       -1.33790
H          1.15900       -1.71390       -0.81480
H          2.21730       -0.26790       -0.44420
H          2.27700        0.43970        1.79090
H          0.95240        0.49560        2.76800
