15
gdb 593	11.96296	1.78051	1.69355	2.561	54.33	-0.2447	0.0781	0.3228	746.2516	0.1312	-287.645651	-287.638806	-287.637862	-287.676543	23.382
C          0.13840        1.33630        0.05100
O          0.23980       -0.06700        0.03050
C          0.44990       -0.58210       -1.26670
C          0.48730       -2.08370       -1.19760
C          1.35550       -2.83360       -2.13910
N          1.68760       -2.77500       -0.70720
H          1.05910        1.81970       -0.31400
H         -0.70170        1.69570       -0.56500
H         -0.02990        1.63720        1.08770
H         -0.35700       -0.25330       -1.94550
H          1.39960       -0.20110       -1.68550
H         -0.44200       -2.54000       -0.86410
H          1.04850       -3.81080       -2.50020
H          1.95610       -2.26180       -2.84280
H          2.43040       -2.09850       -0.54550
