26
gdb 14788	10.72567	0.48609	0.47592	0.	90.68	-0.2954	0.0904	0.3858	2445.4419	0.24536	-315.494806	-315.483695	-315.48275	-315.531757	39.147
C         -0.05310        1.61090       -0.04580
C         -0.01140        0.08060       -0.01850
C          0.72010       -0.48200        1.20530
C          0.76720       -2.01320        1.24080
C          1.49840       -2.57510        2.46490
C          1.54560       -4.10630        2.50050
C          2.27700       -4.66890        3.72430
C          2.31870       -6.19920        3.75160
H          0.95760        2.03410       -0.06020
H         -0.58170        1.98270       -0.92930
H         -0.56320        2.00860        0.83880
H         -1.03570       -0.31480       -0.04060
H          0.47420       -0.28950       -0.93140
H          1.74520       -0.08590        1.22820
H          0.23450       -0.11170        2.11920
H         -0.25810       -2.40840        1.21750
H          1.25290       -2.38260        0.32670
H          2.52370       -2.17990        2.48830
H          1.01280       -2.20570        3.37910
H          0.52050       -4.50240        2.47760
H          2.03120       -4.47660        1.58660
H          3.30130       -4.27350        3.74630
H          1.79140       -4.29890        4.63710
H          1.30800       -6.62240        3.76600
H          2.82880       -6.59690        2.86700
H          2.84730       -6.57100        4.63510
