15
gdb 12773	4.01376	1.68511	1.3243	1.4637	64.89	-0.2455	0.0151	0.2606	929.2172	0.117313	-399.754047	-399.746278	-399.745333	-399.786199	28.322
C         -0.00540        1.39530       -0.05230
N         -0.05880       -0.06030       -0.06490
C          0.60550       -0.69100       -0.91270
O          1.41500       -0.24150       -1.96900
C          1.47910       -1.58850       -2.50930
C          2.18460       -2.47170       -1.52930
C          0.72590       -2.13260       -1.29650
O         -0.19890       -3.11850       -1.08570
H          0.51930        1.82830       -0.91160
H         -1.02680        1.78840       -0.02190
H          0.49220        1.72680        0.86590
H          1.37830       -1.70670       -3.57870
H          2.31670       -3.49940       -1.85700
H          2.97370       -2.07480       -0.89710
H         -1.07640       -2.72470       -1.16260
