18
gdb 20239	3.14186	3.05109	2.44877	0.0747	72.47	-0.2424	0.0875	0.3299	688.965	0.158724	-310.675346	-310.670031	-310.669087	-310.70428	23.635
C         -0.03180        1.55220       -0.12040
C          1.41810        1.98370        0.05540
C          2.15210        1.45150        1.26650
C          1.37420        0.53300        2.19930
C          0.73660       -0.49170        1.27060
C          0.00250        0.04040        0.05940
C          1.43230       -0.45300       -0.07900
C          2.32590        0.77370       -0.08160
H         -0.70520        2.04430        0.59320
H         -0.38470        1.80720       -1.12690
H          1.72520        2.94930       -0.33220
H          2.94540        2.06470        1.68080
H          2.05640        0.03750        2.90050
H          0.63150        1.07520        2.79850
H          0.39700       -1.43370        1.68820
H         -0.82310       -0.54910       -0.32490
H          1.69760       -1.34470       -0.63160
H          3.25480        0.79320       -0.63610
