16
gdb 6315	4.06525	1.15836	0.99036	2.9869	61.79	-0.2563	-0.0361	0.2203	1168.648	0.126644	-420.906293	-420.897214	-420.896269	-420.940917	31.218
C          0.20900        1.43860        0.09370
C          0.31570       -0.05880       -0.11550
O          1.22830       -0.70830        0.34830
C         -0.78700       -0.70700       -0.93720
C         -0.80490       -2.24810       -0.88720
O         -2.01600       -2.72610       -1.40680
C          0.36260       -2.85640       -1.64760
O          0.17200       -3.61900       -2.56630
H          1.10920        1.81040        0.58410
H          0.05890        1.95570       -0.86020
H         -0.66450        1.66380        0.71670
H         -1.76360       -0.34880       -0.59130
H         -0.70390       -0.35790       -1.97580
H         -0.68120       -2.55190        0.16600
H         -1.76530       -3.33520       -2.12070
H          1.37340       -2.56880       -1.31200
