18
gdb 18602	3.22185	2.17687	1.7334	2.5283	66.54	-0.2386	0.0657	0.3043	821.1317	0.155718	-384.928602	-384.921581	-384.920637	-384.959822	27.478
O         -0.36370        1.43860        0.41450
C         -0.07150        0.10180        0.08370
C          0.42000       -0.83080        1.23130
C         -0.83000       -1.73980        1.03670
C         -1.90580       -1.65670        2.12770
C         -2.59640       -0.31780        1.81750
O         -2.56300       -0.19880        0.39680
C         -1.36360       -0.76940       -0.06810
H          0.46950        1.89200        0.57880
H          0.56630        0.04110       -0.81020
H          1.38280       -1.31770        1.05690
H          0.45330       -0.32620        2.20200
H         -0.61140       -2.76250        0.72800
H         -2.61810       -2.48060        2.01890
H         -1.49250       -1.69390        3.13990
H         -3.64370       -0.28100        2.12900
H         -2.06270        0.52350        2.28000
H         -1.54280       -1.15320       -1.07510
