18
gdb 20908	3.04836	1.98096	1.32803	2.5768	74.44	-0.2271	0.0274	0.2545	964.9559	0.154982	-344.019775	-344.011585	-344.010641	-344.053018	29.533
C         -0.09050        1.58280       -0.07910
C          0.05530        0.06030       -0.03420
N          0.76200       -0.47000       -1.18790
N          0.08220       -0.63830       -2.34480
C          0.99400       -1.06460       -3.21260
C          2.26770       -1.16850       -2.62180
C          2.08580       -0.77240       -1.30900
C          3.06140       -0.67030       -0.18140
H          0.88680        2.07510       -0.06920
H         -0.61650        1.88110       -0.98940
H         -0.66100        1.93450        0.78610
H          0.59140       -0.25370        0.86570
H         -0.92870       -0.41490       -0.01910
H          0.70140       -1.28790       -4.22840
H          3.19210       -1.49180       -3.07340
H          3.14130        0.35090        0.20860
H          2.79200       -1.32140        0.65870
H          4.05280       -0.97090       -0.52660
