15
gdb 2306	5.88897	1.39039	1.21994	2.0672	66.81	-0.244	0.0303	0.2743	996.7495	0.122629	-308.477915	-308.469717	-308.468773	-308.511896	27.66
C          0.11030        1.52020        0.06720
C          0.04350        0.06710        0.03480
C         -0.01510       -1.13610        0.01680
C         -0.04220       -2.57270       -0.02920
O         -0.51390       -3.27460        1.13800
C         -1.30220       -3.35260       -0.04720
C         -2.66410       -2.71340       -0.01630
H          1.14720        1.87130        0.02790
H         -0.42440        1.96330       -0.78030
H         -0.33910        1.91340        0.98560
H          0.83480       -3.03310       -0.48490
H         -1.25380       -4.32610       -0.54060
H         -2.61240       -1.71070        0.41270
H         -3.07280       -2.64200       -1.03000
H         -3.35280       -3.31760        0.58320
