13
gdb 4949	3.27664	2.45082	1.4021	6.2082	65.51	-0.2008	-0.0239	0.1768	809.8712	0.098253	-394.826906	-394.820317	-394.819373	-394.857663	25.244
N         -0.06720        1.26010        0.39480
C          0.00700        0.04240        0.02350
N          1.16400       -0.64790       -0.32390
C          1.20850       -1.97690       -0.72450
C          0.07650       -2.68560       -0.79650
N         -1.12940       -2.07350       -0.46650
C         -1.28320       -0.76260       -0.05760
O         -2.36690       -0.29970        0.21280
H          0.85400        1.70410        0.41380
H          2.02790       -0.13020       -0.27600
H          2.17910       -2.38320       -0.96450
H          0.03940       -3.72030       -1.09960
H         -1.99260       -2.59460       -0.51570
