14
gdb 260	8.72739	1.81809	1.54762	1.2601	50.08	-0.2458	-0.0111	0.2348	760.732	0.117054	-307.586014	-307.578343	-307.577399	-307.618405	25.274
C         -0.07430        1.49050        0.01100
C          0.06480       -0.02120        0.00140
O          1.14760       -0.56390       -0.01210
C         -1.22940       -0.81710        0.00920
C         -1.01280       -2.32270       -0.00050
O         -2.29700       -2.93150        0.00810
H          0.91300        1.95340        0.00340
H         -0.64730        1.82610       -0.86070
H         -0.62930        1.81650        0.89780
H         -1.82130       -0.52950        0.88830
H         -1.83730       -0.52050       -0.85590
H         -0.43380       -2.60630       -0.89050
H         -0.41760       -2.61550        0.87570
H         -2.17320       -3.88500        0.00260
