18
gdb 9859	4.83767	0.9861	0.95717	1.6549	76.57	-0.2436	0.0495	0.2931	1301.6428	0.151319	-347.767747	-347.758445	-347.7575	-347.802881	33.158
C         -0.01850        1.44760       -0.21410
C         -0.00970        0.00080       -0.04560
C          0.02980       -1.19620        0.08800
C          0.00390       -2.64820        0.26110
C         -1.40140       -3.20840        0.06330
O         -2.35020       -2.66370        0.93580
C         -1.85970       -3.61120       -1.31550
C         -1.59300       -4.65720       -0.24410
H          0.94230        1.80540       -0.60040
H         -0.79510        1.76340       -0.91950
H         -0.20440        1.96070        0.73580
H          0.69510       -3.12780       -0.44220
H          0.34790       -2.90590        1.27130
H         -2.33750       -1.70780        0.79710
H         -2.89600       -3.41060       -1.56180
H         -1.16620       -3.53060       -2.14590
H         -0.71680       -5.28930       -0.34230
H         -2.45240       -5.13660        0.20990
