14
gdb 14088	3.79092	1.6625	1.39818	4.7098	58.45	-0.2686	0.0066	0.2752	880.9466	0.106683	-419.676387	-419.669136	-419.668191	-419.70802	26.43
O         -0.01930        1.36850       -0.04730
C          0.02920       -0.02080        0.05600
C         -0.47910       -0.69350        1.30010
C         -1.31130       -0.69360        0.04210
C         -2.66990       -0.09580       -0.27770
O         -2.96410       -1.27590       -1.10390
C         -1.74390       -1.84750       -0.81370
O         -1.31340       -2.89270       -1.18370
H          0.71270        1.73470        0.46060
H          0.82670       -0.51260       -0.50020
H         -0.03610       -1.63590        1.60440
H         -0.82330       -0.05150        2.10430
H         -3.37980       -0.01890        0.54850
H         -2.66490        0.81420       -0.87960
