13
gdb 7701	3.55495	2.09004	1.34593	3.5535	62.6	-0.2778	-0.0635	0.2143	845.9077	0.096564	-398.653984	-398.647391	-398.646447	-398.685298	24.241
N         -0.12170        1.33250       -0.20460
C         -0.05260        0.10270        0.05760
C         -1.28000       -0.77380        0.07600
C         -1.12480       -1.99000        0.93180
C          0.07180       -2.40500        1.34660
C          1.30920       -1.70680        0.96550
O          2.41770       -2.10150        1.19030
O          1.16830       -0.50420        0.29110
H          0.80870        1.75470       -0.19610
H         -2.12810       -0.15970        0.39000
H         -1.50750       -1.08410       -0.95510
H         -2.02310       -2.54520        1.18530
H          0.21800       -3.29510        1.94540
