15
gdb 18550	4.22896	1.97915	1.58111	3.7243	66.33	-0.2341	0.0083	0.2425	803.601	0.121141	-362.697021	-362.690636	-362.689691	-362.72761	24.713
O         -0.00910       -0.01430       -0.08760
C          0.00550        1.18380       -0.02630
N         -0.98440        2.13060        0.08820
C         -0.10790        3.30610        0.05980
C          0.04260        4.07910        1.38630
C          1.20910        3.39600        2.06420
C          1.78930        2.47040        1.29810
C          1.09600        2.30500       -0.02310
H         -1.98290        2.03740        0.20700
H         -0.27750        3.94800       -0.80810
H          0.24460        5.14350        1.21050
H         -0.87730        4.03280        1.98330
H          1.52080        3.64950        3.07170
H          2.63800        1.86090        1.58430
H          1.73890        2.31950       -0.90550
