18
gdb 14443	4.0382	2.02315	1.73537	1.2243	70.16	-0.2421	0.0828	0.3249	811.3083	0.155949	-347.785157	-347.778579	-347.777635	-347.815352	27.208
O         -0.08330        1.38720       -0.03540
C          0.03990        0.00780       -0.03460
C          0.86330       -0.79620       -1.03860
C         -0.14640       -1.97760       -0.82580
C          0.36140       -2.95980        0.23970
C          0.54250       -2.07460        1.50510
C         -0.28570       -0.82640        1.19860
C         -1.08770       -0.99380       -0.07480
H          0.62320        1.75440        0.50710
H          0.77180       -0.36490       -2.03880
H          1.92180       -0.98770       -0.82270
H         -0.51870       -2.44410       -1.73770
H         -0.39060       -3.73580        0.42200
H          1.28630       -3.46220       -0.06180
H          0.17920       -2.57720        2.40690
H          1.59660       -1.83260        1.68180
H         -0.73740       -0.25760        2.00440
H         -2.15620       -0.86240       -0.17710
