16
gdb 19089	4.27597	2.21138	1.73154	1.4087	63.8	-0.2393	0.0789	0.3182	767.3337	0.131538	-383.688388	-383.682283	-383.681339	-383.718301	25.017
C         -0.04660        1.57850        0.08790
C          1.26820        0.84380        0.09640
O          1.96740        0.81840        1.31330
C          2.06880       -0.47810        1.84150
C          1.35480       -0.73530        3.14240
C          0.77820       -1.24930        1.84950
O         -0.32030       -0.54850        1.32730
C         -0.02240        0.07260        0.10430
H         -0.33090        2.06380        1.01430
H         -0.35250        2.08110       -0.82300
H          1.89950        0.85130       -0.78970
H          3.00980       -0.98180        1.63040
H          1.78520       -1.44850        3.83670
H          0.85020        0.11380        3.58870
H          0.77410       -2.31770        1.64410
H         -0.33620       -0.48460       -0.77590
