16
gdb 17986	3.86938	1.83608	1.54289	3.6268	67.95	-0.2327	0.0069	0.2395	848.9663	0.13241	-342.749197	-342.742328	-342.741384	-342.780902	25.752
N          0.13010       -1.14290        0.35530
C          0.05530       -0.00090        0.18780
C         -0.02680        1.44110       -0.00460
C         -0.46400        2.29610        1.22910
C          0.86860        3.05960        1.06450
C          2.07670        2.56440        1.88750
C          2.40840        1.63600        0.68680
N          1.27260        2.19690       -0.12330
H         -0.64030        1.62780       -0.89160
H         -1.36980        2.88030        1.06080
H         -0.56790        1.73960        2.16270
H          0.79080        4.13510        0.88780
H          2.82820        3.33070        2.08710
H          1.82940        2.06530        2.82790
H          3.36530        1.83740        0.19880
H          2.33920        0.56140        0.87670
