12
gdb 16785	3.65779	2.26297	1.52564	3.4298	56.64	-0.2734	-0.0348	0.2386	767.6077	0.085552	-414.673596	-414.667604	-414.666659	-414.703812	22.702
N         -0.07400        1.26430       -0.05560
C         -0.05220        0.01320        0.03800
O          1.09920       -0.75140        0.20180
C          0.84340       -2.10400        0.00620
O          1.71650       -2.90620       -0.08870
C         -0.64520       -2.27890       -0.08240
N         -1.28720       -1.77180        1.15560
C         -1.21790       -0.91050       -0.04650
H          0.86540        1.65870        0.01610
H         -1.05520       -3.11820       -0.62740
H         -2.22370       -2.16970        1.20960
H         -2.11380       -0.60280       -0.56780
