13
gdb 1397	6.67352	1.45114	1.24798	0.6891	58.34	-0.3343	0.0003	0.3346	888.8668	0.101478	-303.533559	-303.526088	-303.525144	-303.565337	25.55
C          0.02710        1.57700        0.00590
C          0.00490        0.03810       -0.02470
C         -1.43800       -0.54110        0.02530
C         -2.12780       -0.17010        1.25800
N         -2.65540        0.13260        2.24020
C          0.67940       -0.47560       -1.22080
N          1.19920       -0.87810       -2.17090
H          1.05490        1.94560       -0.00730
H         -0.49670        1.99040       -0.86060
H         -0.46180        1.93490        0.91520
H          0.55040       -0.34320        0.84640
H         -2.01320       -0.17550       -0.83200
H         -1.40710       -1.63250       -0.05000
