18
gdb 12889	2.54283	2.45407	1.75018	1.2605	67.36	-0.2402	0.0892	0.3294	850.1102	0.153127	-384.92464	-384.916695	-384.915751	-384.956677	29.518
C         -0.00830        1.55270       -0.09610
C          0.11800        0.04880       -0.06610
C          1.46120       -0.65890       -0.16310
O          2.60380        0.13300        0.08100
C          2.73790        0.15560        1.49070
O          1.43260        0.08750        2.03020
C          0.68770       -0.71300        1.12110
C          0.03840       -1.92060        1.73480
H         -0.01050        1.92090       -1.12720
H         -0.94140        1.87260        0.37900
H          0.81880        2.02870        0.43180
H         -0.68200       -0.48750       -0.57430
H          1.62380       -1.50650       -0.82170
H          3.34150       -0.70440        1.83120
H          3.20630        1.09630        1.79360
H         -0.70750       -1.62310        2.47950
H         -0.46770       -2.51600        0.96920
H          0.78050       -2.55470        2.23120
