22
gdb 15426	4.36594	0.91519	0.83312	1.0234	79.83	-0.2415	0.091	0.3326	1486.2417	0.198595	-350.185848	-350.176068	-350.175124	-350.220986	34.93
C         -0.20580        1.53820       -0.10090
C         -0.25440        0.02020       -0.29380
C          1.02080       -0.54140       -0.93570
C          0.98050       -2.04500       -1.11630
C          0.28160       -2.65660       -2.32000
C          1.78530       -2.72110       -2.18370
O          2.57890       -1.91200       -2.99310
C          2.78920       -2.45700       -4.27900
H          0.62890        1.82880        0.54700
H         -0.07250        2.05390       -1.05850
H         -1.12710        1.91450        0.35490
H         -0.41870       -0.46800        0.67610
H         -1.11760       -0.24720       -0.91650
H          1.19090       -0.06630       -1.90770
H          1.88740       -0.27490       -0.31520
H          0.89000       -2.60470       -0.18790
H         -0.30320       -3.56210       -2.19910
H         -0.10410       -1.96200       -3.06000
H          2.23270       -3.69070       -1.95570
H          3.30430       -3.42870       -4.22780
H          1.84280       -2.59750       -4.82080
H          3.41800       -1.75310       -4.82950
