16
gdb 18908	3.39202	2.73793	2.21652	1.119	66.65	-0.2195	0.0681	0.2876	690.5995	0.131625	-346.524952	-346.519041	-346.518097	-346.554455	24.972
O         -0.14010        1.42830        0.01450
C         -0.03540        0.05740        0.00650
C         -1.27070       -0.88010        0.04810
C         -0.38480       -1.86580        0.77890
C         -0.44000       -1.86100       -0.75080
C          0.69420       -0.85750       -1.07040
C          1.83870       -1.13480       -0.06470
C          0.76950       -0.86400        1.02240
H          0.74520        1.80960       -0.01380
H         -2.33630       -0.70240        0.08710
H         -0.67600       -2.71830        1.37790
H         -0.77380       -2.70980       -1.33250
H          0.85980       -0.56650       -2.10730
H          2.32070       -2.11650       -0.08510
H          2.60410       -0.35060       -0.08990
H          1.00930       -0.57930        2.04650
