14
gdb 18609	3.29516	2.10945	1.78689	3.5225	63.5	-0.2431	-0.0614	0.1817	768.6508	0.107889	-382.547495	-382.541015	-382.540071	-382.577996	25.262
O          0.12250        1.37550       -0.05840
C         -0.02290        0.00450        0.01220
C         -0.45460       -0.76630        1.25180
C         -1.17610        0.04610        2.27060
C         -2.33620        0.54020        1.80660
C         -2.58020        0.04940        0.41710
O         -3.56380        0.23840       -0.25990
C         -1.35310       -0.74390        0.02220
H         -0.51150        1.79020        0.54050
H          0.75450       -0.46600       -0.58150
H          0.11270       -1.63790        1.55750
H         -0.75430        0.24500        3.24970
H         -3.02640        1.19390        2.32380
H         -1.47690       -1.58420       -0.64900
