18
gdb 6757	6.36195	0.6473	0.6093	0.8631	73.85	-0.2516	0.0407	0.2923	1807.4217	0.150994	-384.905817	-384.895623	-384.894678	-384.942643	34.701
C          0.00720        1.53940       -0.07510
C          0.00360        0.01300        0.09380
O          0.72060       -0.38440        1.26230
C         -1.36010       -0.52720        0.08120
C         -2.49090       -0.94290        0.11230
C         -3.84270       -1.48620        0.13340
C         -3.86970       -3.00960       -0.03480
O         -5.23050       -3.40340        0.00410
H          1.03710        1.90540       -0.05410
H         -0.45740        1.82810       -1.02240
H         -0.55290        2.01480        0.73670
H          0.57020       -0.43120       -0.73390
H          0.17430       -0.15640        2.02280
H         -4.34370       -1.23290        1.07570
H         -4.44620       -1.03830       -0.66560
H         -3.39270       -3.27970       -0.98860
H         -3.28550       -3.47630        0.77210
H         -5.27220       -4.35780       -0.10330
