16
gdb 11094	8.32342	0.96763	0.93202	2.2937	72.62	-0.2517	-0.0261	0.2256	1203.3522	0.128702	-346.567019	-346.558907	-346.557963	-346.600109	29.282
O         -0.07020       -0.07590       -0.15570
C         -0.05000        1.11280        0.03490
C          1.18960        1.96480        0.04660
C          1.05380        3.24390       -0.84270
C          0.73680        4.08850        0.43300
C          1.27010        2.90070        1.29670
C          1.36320        5.38530        0.57760
C          1.90710        6.45180        0.69370
H         -0.99790        1.67460        0.22250
H          2.05380        1.32730       -0.14320
H          2.01200        3.52170       -1.28420
H          0.29180        3.23440       -1.62560
H         -0.34660        4.18670        0.55830
H          0.67560        2.62530        2.17100
H          2.30420        3.05800        1.60660
H          2.38010        7.39680        0.79750
