12
gdb 8749	3.99113	1.28478	1.22394	1.2004	55.38	-0.3183	-0.0195	0.2988	970.6262	0.082016	-414.658883	-414.650346	-414.649402	-414.692631	28.521
O          0.25310        1.59650       -0.12620
C          0.13970        0.19700       -0.01800
C          0.65130       -0.49040       -1.21720
N          1.06680       -1.01800       -2.15680
C          0.89410       -0.32040        1.24860
O          2.20260        0.19820        1.29350
C          0.12570        0.02050        2.45920
N         -0.47010        0.30490        3.40690
H          1.13700        1.79810       -0.45650
H         -0.92710       -0.02710        0.08410
H          0.98730       -1.40970        1.18990
H          2.14830        1.11580        1.58690
