18
gdb 9474	2.87438	1.65968	1.5056	1.7183	73.86	-0.2437	0.0505	0.2941	953.6573	0.151875	-347.761754	-347.753144	-347.7522	-347.794182	32.958
C          0.28340        1.38240       -0.05220
C         -0.01700       -0.12410       -0.05300
C          0.93670       -0.92650       -1.00760
C          1.86930       -1.22980        0.19380
C          0.69830       -0.87740        1.14290
O          0.93530       -0.20930        2.34900
C         -1.43950       -0.37290       -0.19700
C         -2.61650       -0.59760       -0.30850
H          1.36140        1.57310       -0.00230
H         -0.09240        1.84590       -0.96830
H         -0.19620        1.87120        0.80030
H          0.45110       -1.82320       -1.39600
H          1.35770       -0.36190       -1.84210
H          2.29550       -2.23150        0.27470
H          2.68400       -0.50260        0.27560
H          0.11990       -1.76710        1.40270
H          1.51790        0.53710        2.17470
H         -3.65520       -0.79460       -0.40590
