19
gdb 3070	9.37758	1.06516	1.02483	0.9425	68.81	-0.2419	0.0937	0.3356	1199.4664	0.170301	-310.899612	-310.891252	-310.890308	-310.932864	29.632
C          0.24530        1.38030        0.21610
C         -0.16370       -0.03200       -0.20860
C          0.76440       -0.61280       -1.26600
O          0.30860       -1.91240       -1.60360
C          1.08790       -2.53610       -2.57240
C          2.33450       -3.27670       -2.15450
C          1.08390       -4.02910       -2.57050
H          1.25610        1.39390        0.63900
H          0.23330        2.07230       -0.63330
H         -0.43610        1.77590        0.97480
H         -0.16810       -0.70380        0.65760
H         -1.18540       -0.02970       -0.60560
H          0.77390        0.03060       -2.16260
H          1.80020       -0.65750       -0.89170
H          1.10510       -2.02060       -3.53440
H          3.19270       -3.27740       -2.81750
H          2.57360       -3.27270       -1.09690
H          0.51190       -4.50640       -1.78320
H          1.07520       -4.54930       -3.52160
