20
gdb 12417	2.87408	2.02933	1.48616	1.7644	70.56	-0.2454	0.0774	0.3227	931.5497	0.178609	-386.156972	-386.149114	-386.148169	-386.188593	30.996
C         -0.02930        1.52360       -0.01380
C          0.06770        0.00710        0.03500
O          0.82190       -0.41640       -1.10500
C          0.80880       -1.83100       -1.26530
C          1.44820       -2.54280       -0.07100
C          0.80400       -2.06940        1.24150
C          0.76620       -0.53200        1.29660
O          2.07500        0.01530        1.40460
H          0.95810        1.97610        0.10430
H         -0.45410        1.84460       -0.96820
H         -0.66970        1.88700        0.79560
H         -0.94380       -0.43040       -0.02190
H         -0.23120       -2.17500       -1.39820
H          1.35110       -2.03710       -2.19280
H          1.34950       -3.62750       -0.18820
H          2.52180       -2.32130       -0.05350
H         -0.22310       -2.45200        1.31340
H          1.35570       -2.45110        2.10580
H          0.22260       -0.20310        2.18970
H          2.43830        0.01570        0.51000
