15
gdb 6753	7.78183	0.69169	0.64037	4.939	69.84	-0.2562	-0.0197	0.2365	1684.102	0.116136	-399.782423	-399.772686	-399.771742	-399.819004	31.487
C          0.00490        1.39850        0.02160
O         -0.00840       -0.01050       -0.03340
C          0.63940       -0.59020        1.07670
C          0.60180       -2.04280        0.98210
C          0.58410       -3.24630        0.92810
C          0.52600       -4.69590        0.79770
N          1.14030       -5.36460        1.81780
O         -0.02840       -5.25100       -0.13010
H          1.03150        1.79800        0.02410
H         -0.51350        1.75860       -0.86910
H         -0.51450        1.77780        0.91590
H          1.69050       -0.25510        1.13580
H          0.15900       -0.27390        2.02000
H          1.65350       -4.87980        2.53280
H          1.18760       -6.36890        1.76580
