16
gdb 9212	7.04273	0.8839	0.79311	4.0153	64.2	-0.2465	0.0147	0.2612	1378.5753	0.129698	-417.1183	-417.108989	-417.108045	-417.154494	30.596
C          0.03030        1.44960       -0.00950
N         -0.07910        0.00500       -0.10030
C         -1.25100       -0.65740        0.06280
O         -2.31620       -0.10940        0.29900
C         -1.14410       -2.17880       -0.07320
N         -2.45310       -2.74500        0.12230
C         -2.68000       -4.07650        0.06010
O         -1.82380       -4.91040       -0.16090
H          0.70970        1.74540        0.79690
H          0.39140        1.87940       -0.94980
H         -0.96530        1.84000        0.20190
H          0.75170       -0.53110       -0.29280
H         -0.74410       -2.44000       -1.06200
H         -0.42950       -2.57190        0.66220
H         -3.18790       -2.07510        0.30760
H         -3.74460       -4.32730        0.23480
