17
gdb 19864	3.77846	2.25999	2.03821	1.4958	66.11	-0.2322	0.0797	0.3119	739.3406	0.145368	-363.810573	-363.804556	-363.803612	-363.84044	24.461
C          0.08140        1.46770       -0.06790
C          1.31430        0.65630       -0.08550
C          1.68950        0.09080        1.29250
C          1.73480        1.02010        2.50710
O          0.37230        1.27140        2.86320
C         -0.40240        0.11510        2.53560
C          0.26460       -0.52070        1.31900
N         -0.05550       -0.00570       -0.07210
H         -0.19330        2.04460        0.80730
H         -0.22850        1.89590       -1.01670
H          1.95440        0.59520       -0.96030
H          2.51340       -0.62200        1.26010
H          2.26560        0.53470        3.34160
H          2.20440        1.98880        2.31240
H         -0.40400       -0.59850        3.37510
H         -1.43080        0.44220        2.35560
H          0.19220       -1.60840        1.31160
