17
gdb 13116	3.96949	1.30868	1.05712	2.6508	66.35	-0.2316	0.0248	0.2564	1127.6265	0.141441	-401.010015	-401.001504	-401.000559	-401.043742	29.764
C         -0.01970        1.48600        0.05800
C         -0.15150       -0.02000        0.19410
O          0.93720       -0.49020        0.98820
C          0.92120       -1.87030        1.18110
C          2.02890       -2.37360        2.14650
N          0.95690       -2.93040        2.97950
C         -0.08640       -2.42260        2.24540
O         -1.27810       -2.40670        2.40610
H          0.93160        1.74960       -0.41320
H         -0.83390        1.88210       -0.55580
H         -0.06160        1.96540        1.04000
H         -1.10310       -0.29470        0.66660
H         -0.11960       -0.50620       -0.79510
H          0.87280       -2.41890        0.22820
H          2.72270       -3.11630        1.74280
H          2.57850       -1.54890        2.60890
H          0.97690       -3.36860        3.88860
