16
gdb 16806	3.67558	1.88106	1.44518	2.4173	65.48	-0.2438	-0.005	0.2388	883.3257	0.130466	-383.72558	-383.718316	-383.717372	-383.756886	27.77
C         -0.03320        1.50830        0.07200
C         -0.04420        0.01660       -0.02200
C         -0.09420       -0.75190       -1.11500
C         -0.03910       -2.24150       -0.80370
O          1.06390       -2.89700       -1.40850
C          0.03640       -2.25610        0.72850
O          1.26270       -1.67850        1.20030
C          0.05490       -0.86880        1.19130
H          0.88720        1.86550        0.55070
H         -0.10910        1.97230       -0.91450
H         -0.86690        1.87410        0.68450
H         -0.08790       -0.39310       -2.13860
H         -0.93030       -2.77050       -1.16060
H          1.84700       -2.53290       -0.97460
H         -0.34330       -3.09290        1.30700
H         -0.28750       -0.55110        2.17190
