16
gdb 17576	3.45512	2.41456	1.9439	2.6502	62.65	-0.2542	0.0689	0.3232	733.3793	0.131751	-383.688152	-383.682095	-383.68115	-383.717815	25.593
O         -0.11420        1.38430        0.05030
C          0.04360        0.00430        0.06070
C          0.93340       -0.80130       -0.96390
C          0.71920       -1.92750        0.10470
C          0.77590       -0.79790        1.17290
C         -0.80290       -2.15020       -0.06260
O         -1.62730       -1.63790        0.99670
C         -1.28250       -0.77170       -0.09490
H          0.75450        1.79240        0.12370
H          0.53540       -0.96450       -1.96990
H          1.96620       -0.44270       -1.01430
H          1.36790       -2.79910        0.15900
H          1.79870       -0.44150        1.31830
H          0.26650       -0.95130        2.12190
H         -1.21220       -2.97400       -0.63730
H         -2.09670       -0.37930       -0.69380
