14
gdb 7727	3.42535	1.90169	1.32032	3.7241	58.05	-0.2621	-0.0377	0.2243	875.7293	0.107367	-419.737189	-419.730302	-419.729357	-419.768808	25.329
O          0.09070        0.29070        0.94720
C         -0.01790        1.20970        0.17750
C         -1.31210        1.98750       -0.02820
C         -1.22600        2.88370       -1.25850
O         -0.08460        3.75370       -1.19380
C          1.12990        3.20930       -0.92230
O          2.10420        3.90390       -0.88140
C          1.14300        1.70580       -0.68210
H         -2.15070        1.28850       -0.09580
H         -1.47420        2.60050        0.86730
H         -1.18150        2.28930       -2.18040
H         -2.08760        3.54890       -1.33170
H          2.10040        1.40870       -0.25680
H          1.04290        1.21290       -1.66140
