15
gdb 4805	4.98871	1.31203	1.06225	2.5467	64.71	-0.1939	0.0213	0.2152	1062.6667	0.119542	-399.811999	-399.804188	-399.803244	-399.844429	28.678
N          0.04740        1.39210        0.10180
C          0.01210       -0.00720        0.03230
C         -1.03640       -0.81650       -0.29220
O         -0.62910       -2.12770       -0.32750
C          0.69070       -2.14320       -0.02480
C          1.37290       -3.47380        0.00440
O          2.49030       -3.47920        0.87580
C          1.14120       -0.87960        0.20780
H          0.67240        1.73130        0.82130
H         -0.86640        1.80640        0.23090
H         -2.07310       -0.63680       -0.52070
H          0.63200       -4.24730        0.26080
H          1.77350       -3.73400       -0.98320
H          2.17990       -3.18310        1.73840
H          2.15370       -0.59810        0.45150
