13
gdb 4479	3.56561	1.88936	1.24457	1.1138	56.88	-0.1979	0.0318	0.2297	903.022	0.095405	-435.780618	-435.773197	-435.772253	-435.81212	27.032
C          0.14940        1.51450        0.13560
C         -0.02820        0.05090        0.01720
C         -1.06440       -0.78820       -0.21310
O         -2.35760       -0.46410       -0.41860
N         -0.64710       -2.11450       -0.21980
C          0.62500       -2.01050        0.00760
O          1.52460       -2.98640        0.10570
O          1.09900       -0.77920        0.16360
H          0.83730        1.91190       -0.62070
H         -0.82150        1.99610       -0.00460
H          0.53440        1.80790        1.11980
H         -2.83410       -1.29160       -0.55090
H          1.05150       -3.81760       -0.02610
