21
gdb 5964	3.1906	1.14138	1.04784	4.1225	79.01	-0.3095	0.0443	0.3538	1258.1635	0.186916	-329.15972	-329.149725	-329.148781	-329.194249	36.188
C         -0.07790        1.64180        0.01150
C          0.02810        0.11300        0.00240
C         -1.35480       -0.55090        0.01220
C         -1.36630       -2.10840        0.00390
C         -0.71090       -2.68150       -1.27320
C         -0.68680       -2.69530        1.26200
C         -2.78080       -2.52430        0.01520
N         -3.89140       -2.84540        0.02350
H          0.91260        2.10650        0.00440
H         -0.62460        2.00620       -0.86500
H         -0.60750        1.99690        0.90210
H          0.59250       -0.20260       -0.88270
H          0.60950       -0.21190        0.87290
H         -1.90890       -0.21170        0.89590
H         -1.92590       -0.20220       -0.85690
H          0.35530       -2.44210       -1.29030
H         -0.81480       -3.76930       -1.30580
H         -1.17440       -2.26790       -2.17320
H         -1.13290       -2.29140        2.17500
H         -0.79040       -3.78340        1.28490
H          0.37960       -2.45610        1.26120
