10
gdb 3816	9.51511	1.94715	1.61638	4.6749	54.69	-0.2677	-0.0244	0.2433	680.2682	0.070251	-318.393987	-318.388668	-318.387723	-318.423148	19.092
N          0.02590       -1.17680       -0.00420
C         -0.00400       -0.01910        0.00250
C         -0.02760        1.39520        0.01070
C         -1.14400        2.21890        0.03010
N         -0.67270        3.47970        0.03070
N          0.67520        3.55400        0.01350
C          1.07460        2.29280        0.00150
H         -2.19680        1.98850        0.04280
H         -1.20590        4.33360        0.04240
H          2.12550        2.04850       -0.01360
