16
gdb 12848	2.99339	2.45334	1.79508	2.3964	65.21	-0.247	0.0038	0.2508	778.3266	0.131389	-383.728636	-383.721927	-383.720983	-383.759203	26.453
O          0.19370        1.39190       -0.22020
C          0.07310        0.00630       -0.02290
C          0.21430       -0.80040       -1.32710
O         -0.97010       -1.56500       -1.01910
C         -1.32120       -0.69390        0.08180
C         -1.38210       -1.43060        1.42380
C          0.03110       -1.29290        1.94960
C          0.80810       -0.53420        1.17470
H          0.16340        1.81940        0.64260
H          0.08360       -0.17270       -2.21810
H          1.10040       -1.43400       -1.44200
H         -2.19800       -0.08030       -0.15060
H         -2.12010       -1.00510        2.11670
H         -1.66470       -2.47680        1.25930
H          0.35840       -1.78260        2.86100
H          1.85500       -0.30930        1.34980
