19
gdb 13265	7.96752	0.8376	0.79946	2.8186	77.62	-0.2429	0.0296	0.2725	1475.3603	0.164591	-365.048488	-365.039808	-365.038864	-365.082852	30.797
C         -0.26870        1.56800       -0.05760
N         -0.04990        0.15450        0.16390
C         -1.03550       -0.61200        0.01570
O         -0.92140       -1.93710        0.23590
C         -2.03110       -2.75260       -0.10010
C         -1.98940       -3.52110       -1.44460
C         -2.56310       -4.75210       -0.68780
C         -2.09130       -4.10030        0.64320
H          0.41060        1.92780       -0.83900
H         -1.30020        1.82300       -0.35340
H         -0.02680        2.12640        0.85420
H         -2.04630       -0.28660       -0.28070
H         -2.96220       -2.18260        0.01190
H         -2.55130       -3.11420       -2.28840
H         -0.95120       -3.68250       -1.74680
H         -3.65280       -4.80420       -0.75570
H         -2.15160       -5.73070       -0.93890
H         -1.08030       -4.41950        0.90950
H         -2.73350       -4.17200        1.52330
