18
gdb 17618	4.02473	1.43104	1.1522	3.8666	71.06	-0.244	0.0181	0.2621	1067.6026	0.153937	-381.121352	-381.112406	-381.111462	-381.155523	30.983
C          0.17970        1.43770       -0.03840
N          0.09960       -0.01160        0.04790
C          0.38670       -0.58420        1.35010
C         -0.28230       -0.72260       -1.05450
O         -0.63960       -0.18120       -2.09510
C         -0.24620       -2.22920       -0.98270
C         -1.51700       -2.93270       -1.34210
N         -0.38870       -2.92330       -2.26650
H          1.17120        1.78260        0.27970
H          0.00040        1.73200       -1.07070
H         -0.57090        1.91030        0.60800
H          0.02090       -1.60700        1.42170
H          1.46220       -0.57430        1.57400
H         -0.12170        0.00180        2.12480
H          0.44510       -2.69960       -0.29320
H         -1.74290       -3.89130       -0.88330
H         -2.37540       -2.30530       -1.56650
H         -0.55000       -2.19150       -2.96100
