14
gdb 3310	5.4522	2.29105	2.09253	1.5593	56.94	-0.2453	-0.033	0.2122	653.8441	0.113436	-324.530742	-324.524486	-324.523542	-324.561248	22.707
O         -0.65600        0.77030       -0.48850
C          0.19340        0.95820        0.34590
C          1.33310        1.93540        0.20810
C          1.28770        3.01220       -0.89870
C          1.26870        4.03390        0.23730
C          0.14800        3.79060        1.15920
N          1.37250        2.96840        1.32470
H          0.17850        0.42190        1.32200
H          2.27410        1.37490        0.23660
H          2.19730        3.03840       -1.49970
H          0.41730        2.99510       -1.55880
H          1.87510        4.93210        0.28260
H          0.01170        4.48210        1.98440
H         -0.76870        3.33310        0.79380
