18
gdb 10542	2.9235	1.5294	1.14	0.9375	75.15	-0.2408	0.0392	0.28	1104.4451	0.150801	-347.749315	-347.740362	-347.739418	-347.782986	32.896
C         -0.15620        1.51520        0.03580
C         -0.07910        0.01350        0.24710
O         -1.29430       -0.55870       -0.22910
C         -1.37340       -1.94640       -0.08570
C         -1.80350       -2.48220        1.27270
C         -2.77370       -2.46570        0.12000
C         -0.44420       -2.71610       -0.87690
C          0.34270       -3.34090       -1.53840
H          0.76190        1.99490        0.38800
H         -0.28420        1.74700       -1.02520
H         -1.00220        1.94030        0.58360
H          0.77370       -0.41570       -0.29700
H          0.05450       -0.22760        1.31290
H         -1.39770       -3.43140        1.60190
H         -1.93810       -1.73780        2.04920
H         -3.54870       -1.70830        0.12510
H         -3.03870       -3.40280       -0.35420
H          1.03030       -3.89610       -2.12720
