18
gdb 14901	4.43813	1.44615	1.17649	0.9277	79.35	-0.2417	0.02	0.2617	1035.9023	0.154894	-310.654362	-310.646799	-310.645855	-310.68606	29.5
C         -0.01950       -1.23140       -0.04960
C         -0.00880       -0.02960       -0.01790
C          0.00650        1.43210        0.03300
C         -0.76660        1.96420        1.26280
C         -0.54500        3.47070        1.43100
C          0.93940        3.78640        1.66550
C          1.83520        3.00420        0.74100
C          1.42920        1.96900        0.00890
H         -0.03040       -2.29250       -0.08290
H         -0.50710        1.79380       -0.87270
H         -1.83000        1.73050        1.15420
H         -0.41170        1.43360        2.15390
H         -0.88750        3.98890        0.52600
H         -1.15040        3.85280        2.25950
H          1.12440        4.86050        1.53820
H          1.21390        3.56590        2.70800
H          2.87450        3.31950        0.67990
H          2.12250        1.45250       -0.64840
