11
gdb 21827	6.09721	1.50216	1.20523	2.8518	54.58	-0.2537	-0.0481	0.2057	884.78	0.072779	-430.715723	-430.709354	-430.70841	-430.74674	22.555
O         -0.24220        0.03210        0.00040
C         -0.06900        1.23010        0.00770
N          1.16330        1.82550        0.00100
C          2.35540        1.11750       -0.01530
C          2.63130       -0.21530       -0.02780
O          3.96430       -0.34200       -0.04210
N          4.50950        0.95180       -0.03670
N          3.55510        1.78240       -0.02110
H         -0.88600        1.97250        0.02120
H          1.23810        2.83180        0.00800
H          2.02260       -1.09960       -0.02890
