16
gdb 11815	3.75757	1.66847	1.31675	3.3217	66.38	-0.2414	-0.038	0.2034	948.3989	0.12884	-383.725303	-383.717505	-383.716561	-383.757648	28.385
C          0.25600        1.62360       -0.06720
C          0.05680        0.11390       -0.00110
C          0.51850       -0.77430       -1.20530
C          1.27720       -1.68150       -0.22340
C          1.30870       -3.14970       -0.10950
O          2.46610       -2.40060       -0.47110
C          1.04190       -0.67520        0.89640
O          1.49050       -0.50860        1.99240
H          1.27910        1.87260       -0.36730
H         -0.42950        2.08100       -0.78710
H          0.07660        2.07500        0.91300
H         -0.97210       -0.12340        0.29490
H         -0.26840       -1.24710       -1.79490
H          1.20140       -0.24350       -1.87440
H          1.33830       -3.60990        0.87670
H          0.86420       -3.74540       -0.90580
