15
gdb 23863	3.57301	1.27352	1.16383	2.9133	50.45	-0.2779	0.061	0.3389	1037.7926	0.113536	-531.315969	-531.307397	-531.306453	-531.349591	30.515
C         -0.03750        1.59580        0.08370
C          0.01460        0.06990       -0.00660
O          0.84580       -0.48680        1.00090
C         -1.39870       -0.53400        0.00350
C         -1.43420       -2.04720       -0.11070
F         -1.00930       -2.65510        1.00520
F         -2.69160       -2.47280       -0.33530
F         -0.67780       -2.48860       -1.12780
H          0.97770        2.00010        0.08390
H         -0.58610        2.02960       -0.75870
H         -0.53330        1.91590        1.00840
H          0.49960       -0.21870       -0.94520
H          0.43030       -0.33490        1.85700
H         -1.92980       -0.26310        0.92360
H         -1.97760       -0.13400       -0.83450
