11
gdb 3456	5.03688	2.90944	2.80804	2.2243	51.42	-0.2649	-0.0148	0.2501	533.0628	0.078861	-343.218379	-343.213281	-343.212337	-343.247148	19.475
O          0.00150       -0.02620       -0.06020
C         -0.01460        1.15260       -0.05800
C         -1.03360        2.38130        0.06430
O         -0.02530        2.92940        0.95730
C          0.97320        2.40880        0.03730
C          0.61650        3.07370       -1.27040
C         -0.73050        3.05520       -1.25230
H         -2.03770        2.32720        0.47570
H          1.98910        2.38240        0.42170
H          1.30020        3.38380       -2.04620
H         -1.44300        3.34620       -2.00940
