16
gdb 11929	3.30195	1.87079	1.45692	1.912	72.84	-0.2377	0.0217	0.2594	903.257	0.128203	-346.543049	-346.535225	-346.534281	-346.574793	29.82
C          0.03500        1.53990       -0.00050
C         -0.08930        0.05850        0.13170
C         -1.33600       -0.82810       -0.04370
C         -0.71430       -1.84510        0.97210
C          0.50140       -0.90830        1.10100
O          1.03230       -0.75110       -0.23310
C          1.36770       -0.72750        2.21380
C          2.06810       -0.59370        3.18280
H          0.99800        1.87530        0.39280
H         -0.03040        1.83870       -1.05290
H         -0.76690        2.04700        0.54500
H         -2.25140       -0.36570        0.33300
H         -1.49910       -1.18640       -1.06270
H         -1.28870       -1.92680        1.89680
H         -0.47620       -2.84150        0.59460
H          2.69650       -0.47380        4.03040
