14
gdb 19809	4.17331	2.0755	1.83886	3.7769	60.32	-0.2375	-0.0237	0.2138	735.91	0.106791	-382.48905	-382.482963	-382.482018	-382.519298	23.891
O          0.00060        0.01020        0.06870
C         -0.01120        1.20380        0.07240
C         -1.13540        2.26560        0.09920
C         -0.04620        3.37250       -0.00050
C          0.55260        3.87470        1.34050
O          0.53560        2.77830        2.26230
C          1.60660        2.84840        1.31240
C          1.09100        2.28690       -0.04050
H         -1.77930        2.19730       -0.78320
H         -1.75350        2.25520        0.99920
H         -0.13350        4.11400       -0.79160
H          0.53560        4.87300        1.76260
H          2.61630        2.83130        1.70490
H          1.82230        2.21410       -0.84510
