20
gdb 15435	3.02529	1.32875	1.02195	2.8068	72.08	-0.2509	0.0833	0.3343	1209.1008	0.175819	-386.114815	-386.105578	-386.104634	-386.149369	33.21
C         -0.25090        1.36010        0.45640
C          0.16810       -0.08370        0.24220
O          0.20380       -0.73330        1.50610
C          0.56500       -2.08100        1.44370
C          2.02310       -2.46890        1.41800
C          1.19600       -2.64160        2.68050
C          1.40990       -1.70020        3.85190
O          0.18630       -1.28830        4.43610
H          0.46070        1.87470        1.10840
H         -0.29100        1.89010       -0.49980
H         -1.23980        1.40910        0.92130
H         -0.54290       -0.60140       -0.42120
H          1.15870       -0.14070       -0.23310
H         -0.13800       -2.70190        0.88690
H          2.32100       -3.34510        0.85280
H          2.74840       -1.66140        1.42040
H          0.89840       -3.65030        2.95080
H          1.97570       -2.20420        4.64240
H          2.00360       -0.83500        3.52400
H         -0.28490       -0.81560        3.73930
