16
gdb 18026	4.26926	1.59726	1.45621	2.4728	59.95	-0.2533	0.0478	0.3011	889.1554	0.130907	-420.819608	-420.812517	-420.811573	-420.851275	26.403
O          0.05090        1.20800       -0.45050
C          0.06300       -0.14300       -0.02410
C         -1.35430       -0.63280        0.20310
O         -2.17020       -0.46400       -1.00290
C         -2.57720       -1.84500       -0.97990
C         -1.63850       -2.77270       -1.76320
O         -0.77760       -2.93190       -0.60290
C         -1.65830       -2.14410        0.21990
H         -0.53360        1.24060       -1.21740
H          0.56530       -0.79950       -0.74670
H          0.62700       -0.17910        0.91440
H         -1.82290       -0.09140        1.03550
H         -3.65810       -1.97450       -1.04720
H         -2.07710       -3.73320       -2.06110
H         -1.12700       -2.31040       -2.61380
H         -1.91490       -2.63180        1.16120
