12
gdb 2519	3.47019	2.21167	1.43366	3.8157	51.8	-0.2837	-0.0601	0.2236	800.5328	0.087214	-360.508088	-360.500263	-360.499319	-360.541364	25.086
C         -0.25500        1.39270       -0.04890
O          0.18620        0.04990        0.09740
C          0.79260       -0.48930       -1.04310
C          1.36860       -1.86120       -0.62120
O          2.21850       -2.43510       -1.23580
C         -0.15690       -0.66860       -2.16150
N         -0.92110       -0.80320       -3.01770
H          0.58130        2.05900       -0.30340
H         -1.02920        1.47810       -0.82170
H         -0.67130        1.68830        0.91510
H          1.63060        0.12760       -1.40490
H          0.91450       -2.23910        0.31710
