18
gdb 9288	5.87333	0.9049	0.82798	5.3228	66.16	-0.2712	0.0141	0.2853	1374.1952	0.151408	-422.09911	-422.089741	-422.088797	-422.133717	32.614
C          0.05820        1.56950        0.31410
C          0.01370        0.05390        0.10260
C          0.90060       -0.71350        1.08830
O          0.55090       -0.46310        2.44540
C          0.89340       -2.21790        0.80670
O          1.85520       -2.89360        1.61460
C          1.45560       -3.34340        2.82170
O          2.20910       -3.83150        3.60760
H          1.06620        1.95910        0.13770
H         -0.62500        2.08230       -0.36880
H         -0.21980        1.82790        1.33920
H         -1.02080       -0.30900        0.20080
H          0.32500       -0.19290       -0.91990
H          1.93640       -0.36370        1.00070
H         -0.40190       -0.58210        2.53590
H         -0.11100       -2.63160        0.98060
H          1.17060       -2.42340       -0.23080
H          0.36650       -3.23480        2.98080
