13
gdb 4041	6.4946	1.2975	1.08874	2.9305	68.46	-0.2498	-0.0787	0.1711	993.1983	0.095483	-398.594809	-398.587903	-398.586959	-398.626086	25.642
O         -0.11990        1.33670        0.00850
N          0.01910       -0.05290        0.00400
C         -1.11400       -0.64830        0.01130
C         -1.23610       -2.15280        0.00860
C         -2.75700       -2.38400        0.01970
O         -3.31600       -3.45450        0.02120
C         -3.39580       -1.04300        0.02790
C         -2.46120       -0.07370        0.02310
H          0.79590        1.63530        0.00220
H         -0.78790       -2.61310       -0.87700
H         -0.77440       -2.61740        0.88490
H         -4.47040       -0.91330        0.03650
H         -2.63370        0.99340        0.02710
