16
gdb 18063	4.89349	1.34716	1.28951	4.8606	68.05	-0.2458	0.0328	0.2786	972.8585	0.13193	-342.746332	-342.739195	-342.738251	-342.778328	26.546
N         -0.33640       -0.45130        1.87230
C         -0.22340        0.39750        1.09670
C         -0.07760        1.47200        0.11310
C          1.32010        2.07680        0.10890
C          1.62350        3.48470       -0.21900
C          0.56590        4.45990        0.29380
C          0.78210        3.81760        1.68680
N          1.88270        2.91890        1.17860
H         -0.28170        1.05890       -0.88180
H         -0.85210        2.22010        0.30020
H          2.07250        1.36460       -0.22250
H          2.43910        3.74710       -0.88590
H          0.90140        5.49720        0.25660
H         -0.42730        4.40490       -0.16380
H          1.19910        4.50560        2.42340
H         -0.05580        3.28590        2.14760
