14
gdb 20955	7.61238	1.16169	1.02076	3.0915	60.66	-0.241	-0.0393	0.2018	1100.478	0.106315	-415.826098	-415.818689	-415.817745	-415.85878	25.843
C         -0.00660        1.48570       -0.01170
C          0.00100       -0.02970        0.00460
O          0.68000       -0.46750       -1.18810
C          0.79180       -1.78600       -1.35880
C          1.38120       -2.46040       -2.38580
O          1.25410       -3.76930       -2.13480
N          0.56580       -3.89420       -0.91730
N          0.30880       -2.72920       -0.48710
H          1.01340        1.87940       -0.02110
H         -0.53100        1.86220       -0.89420
H         -0.51520        1.86210        0.88050
H          0.52510       -0.42430        0.88230
H         -1.01450       -0.44140        0.01200
H          1.88790       -2.16250       -3.28620
