19
gdb 13707	5.65201	0.87519	0.80944	2.7508	79.94	-0.2254	0.0226	0.248	1465.2774	0.16341	-365.044874	-365.035534	-365.03459	-365.079718	32.565
C          0.02270        1.43710        0.07030
O         -0.27550        0.05640       -0.08420
C          0.39180       -0.57420       -1.07340
N          0.20940       -1.80120       -1.28600
C          0.93190       -2.41650       -2.34180
C          1.39090       -3.84580       -2.13250
C          0.27300       -3.55570       -3.09950
C         -1.14640       -3.97910       -2.79750
H          1.07900        1.59590        0.32100
H         -0.22180        2.00670       -0.83510
H         -0.59610        1.79550        0.89370
H          1.07940        0.06860       -1.64470
H          1.59690       -1.77140       -2.92190
H          2.36490       -4.13310       -2.51360
H          1.12270       -4.29260       -1.18140
H          0.54440       -3.60210       -4.15150
H         -1.37660       -3.84060       -1.73910
H         -1.86620       -3.38640       -3.37320
H         -1.30110       -5.03340       -3.05260
