13
gdb 11143	5.27912	1.36772	1.17964	2.9462	64.83	-0.2618	-0.07	0.1918	953.6675	0.096479	-361.509419	-361.502624	-361.50168	-361.540982	24.636
O          0.00290       -0.03510        0.20670
C          0.00640        1.16380        0.08100
C         -1.24200        2.05690       -0.03300
C         -0.70020        3.50950       -0.02140
C          0.81400        3.33600       -0.06320
C          1.18940        2.05790        0.00660
C         -1.19100        4.34000       -1.12310
N         -1.57210        4.99730       -1.99380
H         -1.76230        1.82420       -0.96560
H         -1.93420        1.85470        0.78670
H         -0.97760        4.01990        0.91030
H          1.46840        4.19720       -0.12850
H          2.20300        1.67940        0.02330
