19
gdb 14783	6.54052	0.62886	0.60801	4.0978	70.01	-0.2497	0.0327	0.2824	1792.2907	0.16447	-402.221463	-402.211581	-402.210637	-402.258393	33.237
O         -0.01320        1.37760        0.14300
C         -0.00960       -0.03900        0.22910
C         -1.40430       -0.53300       -0.13220
C         -1.52270       -2.05890       -0.09900
C         -2.93740       -2.53820       -0.44690
N         -3.06990       -3.98710       -0.44550
C         -3.63490       -4.67910        0.57980
O         -4.12260       -4.18560        1.57460
H          0.85710        1.69730        0.39760
H          0.73080       -0.47860       -0.46010
H          0.25190       -0.37750        1.24490
H         -2.12290       -0.08330        0.56360
H         -1.65720       -0.15350       -1.13020
H         -0.80490       -2.50380       -0.80220
H         -1.26180       -2.43920        0.89610
H         -3.65370       -2.16410        0.28850
H         -3.23490       -2.15440       -1.43030
H         -2.65760       -4.51410       -1.19890
H         -3.60970       -5.77250        0.39800
