16
gdb 9636	4.39885	1.20171	1.07569	1.7842	67.94	-0.2594	0.0217	0.281	1109.5694	0.12711	-383.679355	-383.670445	-383.6695	-383.712923	32.091
C          0.09340        1.48920       -0.19760
C         -0.03080        0.01710        0.14300
O          1.19890       -0.73940        0.16160
C          0.48730       -0.58520        1.39650
C          1.21280        0.15880        2.49120
O          2.23960       -0.64860        3.04280
C         -1.14080       -0.65050       -0.50400
C         -2.07640       -1.17060       -1.05030
H          0.97560        1.93160        0.26590
H          0.17750        1.60760       -1.28160
H         -0.79690        2.03250        0.13270
H          0.00250       -1.50230        1.73410
H          1.60920        1.11280        2.12050
H          0.51960        0.37650        3.31090
H          2.83290       -0.88060        2.31930
H         -2.89860       -1.64270       -1.52930
