12
gdb 21107	3.85447	1.98402	1.32078	1.7899	63.56	-0.2835	-0.0601	0.2234	842.326	0.085481	-373.714852	-373.707966	-373.707022	-373.746487	23.708
C         -0.03390        1.44440        0.03350
N         -0.01180       -0.00780        0.06540
N         -0.03640       -0.71860       -1.06800
N         -0.00860       -1.98790       -0.75610
C          0.03430       -2.11010        0.58980
C          0.03320       -0.84260        1.14400
C          0.06750       -0.38560        2.47830
N          0.09580        0.00530        3.56820
H          0.86550        1.84730        0.50500
H         -0.06840        1.73830       -1.01470
H         -0.91580        1.82150        0.55650
H          0.06310       -3.06600        1.08620
