16
gdb 5530	3.26127	1.79296	1.24615	2.7326	67.59	-0.1913	0.0325	0.2238	971.1036	0.131854	-379.969148	-379.961293	-379.960349	-380.001735	28.828
C          0.06170        1.58420        0.33840
C          0.00900        0.10040       -0.07010
C         -1.36550       -0.47880       -0.10280
C         -2.16990       -0.89940       -1.13380
O         -1.85380       -0.88540       -2.45160
N         -3.37850       -1.35790       -0.69480
C         -3.33590       -1.22430        0.61640
N         -2.15340       -0.70050        1.02390
H          1.09210        1.95390        0.33350
H         -0.52760        2.19710       -0.34980
H         -0.34070        1.73760        1.34590
H          0.43280       -0.01720       -1.07210
H          0.65400       -0.48230        0.60300
H         -2.61510       -1.25690       -2.91260
H         -4.12400       -1.49010        1.30390
H         -1.88230       -0.51300        1.97430
