17
gdb 1511	8.29055	1.12223	1.01298	1.1385	60.94	-0.2446	-0.0093	0.2353	1142.851	0.14558	-346.875201	-346.8662	-346.865256	-346.909917	30.129
C          0.10020        1.52030        0.00870
C         -0.06110        0.00230        0.00260
C         -1.51370       -0.45720        0.01390
O         -2.43480        0.32990        0.02690
C         -1.74600       -1.95960        0.00820
C         -3.21810       -2.34280        0.02000
O         -3.28190       -3.76200        0.01310
H          1.15820        1.79660        0.00030
H         -0.38190        1.96720       -0.86440
H         -0.36580        1.95840        0.89480
H          0.42530       -0.44590       -0.87490
H          0.44160       -0.45460        0.86630
H         -1.25380       -2.39550       -0.87120
H         -1.23740       -2.40470        0.87350
H         -3.70280       -1.91710        0.91000
H         -3.71940       -1.90780       -0.85620
H         -4.20880       -4.01770        0.02050
