11
gdb 23623	4.06246	1.85262	1.27237	3.2703	55.15	-0.2454	-0.0422	0.2032	833.1428	0.072606	-442.545613	-442.53967	-442.538726	-442.575884	22.239
F          0.09470        0.06030        0.00200
C         -0.05430        1.36310        0.01110
C         -1.23750        1.99220        0.03070
C         -1.28330        3.45740        0.03910
O         -2.31680        4.10530        0.05700
C          0.05850        4.07040        0.02430
C          1.16550        3.32070        0.00510
O          1.14500        1.95410       -0.00210
H         -2.15520        1.42050        0.04010
H          0.13490        5.15030        0.02920
H          2.18420        3.68350       -0.00680
