19
gdb 18168	4.80237	1.29748	1.27493	1.8173	72.27	-0.2302	0.0844	0.3147	1053.8352	0.164614	-364.996232	-364.988022	-364.987077	-365.028766	30.414
C          0.04850        1.32140       -0.22980
O         -0.02960        0.00560        0.27030
C         -1.31090       -0.55950        0.15800
C         -1.64530       -1.13660       -1.25990
C         -1.61820       -2.55480       -0.65560
C         -1.28660       -1.99720        0.70870
N         -2.51330       -2.71740        0.46780
C         -3.83260       -2.10860        0.54360
H          1.06970        1.67200       -0.06240
H         -0.16940        1.36930       -1.30730
H         -0.65020        1.99410        0.29210
H         -2.06160        0.11770        0.59480
H         -2.56890       -0.81840       -1.75320
H         -0.80050       -0.97030       -1.93220
H         -1.24780       -3.44620       -1.15100
H         -0.59770       -2.34340        1.47190
H         -3.91950       -1.10680        0.09920
H         -4.54770       -2.76420        0.03700
H         -4.12570       -2.03860        1.59570
