18
gdb 13936	3.37686	1.79806	1.45884	2.5675	67.1	-0.2476	0.0673	0.3149	919.8977	0.153336	-384.900518	-384.892706	-384.891762	-384.933256	28.562
C         -0.27510        1.48430       -0.05130
C          0.05620        0.00100       -0.10870
C          1.38200       -0.41010       -0.78410
O          1.84250       -1.05400        0.42410
C          0.66390       -0.67710        1.14430
C          0.83590        0.01460        2.51130
O         -0.01700       -0.95700        3.15090
C         -0.07210       -1.76010        1.95400
H          0.57550        2.07070        0.31260
H         -0.53600        1.86010       -1.04640
H         -1.12630        1.67860        0.60960
H         -0.80100       -0.56210       -0.48980
H          1.30980       -1.11380       -1.62110
H          2.03380        0.42450       -1.07320
H          1.87110       -0.03040        2.87440
H          0.45220        1.03560        2.61970
H         -1.10230       -1.99150        1.65570
H          0.50460       -2.69010        2.04380
