16
gdb 12056	4.13691	1.66635	1.53172	2.6912	64.65	-0.2406	-0.0323	0.2082	871.2664	0.128279	-383.705349	-383.697718	-383.696773	-383.737406	28.358
C          0.02160        1.66620       -0.04420
C          0.08010        0.15620        0.00980
O          1.11110       -0.44210       -0.84450
C          1.59710       -1.22520        0.24930
C          2.15400       -0.34560        1.31620
C          0.65650       -0.57320        1.23820
C         -1.24710       -0.49810       -0.36690
O         -2.32280        0.02800       -0.25590
H          0.92880        2.11370        0.36620
H         -0.09420        1.99990       -1.07980
H         -0.84580        2.01620        0.52100
H          1.87060       -2.25520        0.05550
H          2.62790       -0.86120        2.14600
H          2.59670        0.60980        1.05220
H          0.07520       -0.98300        2.05280
H         -1.12680       -1.53380       -0.75340
