9
gdb 14583	47.31512	0.55858	0.55206	2.648	88.85	-0.2944	-0.1283	0.1661	1771.6672	0.047464	-359.02647	-359.018836	-359.017892	-359.059078	24.54
O         -0.09270       -0.03590        0.00270
C         -0.02940        1.17020        0.00820
C          1.21610        1.90270        0.00020
C          2.25430        2.53430       -0.00620
C          3.40650        3.23510       -0.01340
C          4.44520        3.86700       -0.01970
C          5.60500        4.57550       -0.02670
N          6.59710        5.18280       -0.03280
H         -0.93230        1.81040        0.02000
