16
gdb 15697	3.10444	1.90838	1.3469	2.4365	61.06	-0.2459	-0.0307	0.2152	926.6677	0.129819	-420.888059	-420.880162	-420.879218	-420.920946	27.809
C         -0.21640        1.33950        0.24090
O         -0.12890       -0.07790        0.23140
C          0.88390       -0.57980        1.05720
O          0.63040       -0.40150        2.42630
C         -0.26050       -1.44880        2.85590
C          0.19380       -2.69710        2.09370
C          0.87990       -2.11340        0.85730
O          1.34760       -2.70490       -0.07420
H          0.71840        1.79400       -0.11840
H         -1.02900        1.61120       -0.43550
H         -0.43200        1.72130        1.24540
H          1.85250       -0.11310        0.83450
H         -0.16100       -1.52840        3.93940
H         -1.29710       -1.18590        2.61350
H          0.93410       -3.27290        2.65920
H         -0.61010       -3.37730        1.80450
