18
gdb 13006	2.62503	2.46288	1.6641	1.6235	72.02	-0.231	0.0084	0.2394	849.0103	0.154178	-347.800457	-347.792907	-347.791963	-347.831686	29.782
C         -0.07580        1.48190        0.00410
C          0.06330       -0.02060       -0.00100
C         -0.80700       -0.85370        0.91440
C          0.69820       -0.80890        1.12470
C          1.43440       -1.93300        0.46960
C          1.30050       -1.89840       -0.85720
C          0.49960       -0.69160       -1.31620
O         -0.56180       -0.99280       -2.21410
H          0.86760        1.96850       -0.26950
H         -0.83570        1.79980       -0.71900
H         -0.37210        1.85800        0.98850
H         -1.43340       -0.30510        1.61110
H         -1.23410       -1.79200        0.57150
H          1.09340       -0.33020        2.01410
H          1.96490       -2.69310        1.03310
H          1.67990       -2.62880       -1.56230
H          1.13380       -0.00070       -1.88810
H         -1.18130       -1.56100       -1.74260
