19
gdb 8581	4.01895	1.89303	1.65002	1.2964	71.39	-0.2079	0.0894	0.2973	861.636	0.167791	-365.038111	-365.031242	-365.030298	-365.068777	27.496
C         -0.05490        1.45650        0.07280
N         -0.04820        0.01110        0.08610
C         -1.37440       -0.58640       -0.06540
C         -1.28330       -2.07800        0.24630
C          0.10280       -2.64450       -0.12700
C          0.45170       -2.06060        1.25820
C          0.74540       -0.56510        1.17100
O         -0.94310       -2.20210        1.65860
H          0.97370        1.83350        0.06120
H         -0.55690        1.81810       -0.83150
H         -0.56880        1.90280        0.94620
H         -2.12700       -0.14840        0.61640
H         -1.72090       -0.41780       -1.09430
H         -2.19210       -2.62490       -0.01580
H          0.10910       -3.73510       -0.11900
H          0.61090       -2.24580       -1.00500
H          1.13530       -2.59140        1.92490
H          1.80890       -0.38230        0.96440
H          0.51590       -0.12180        2.15790
