20
gdb 8438	2.72068	2.09522	1.76342	1.7235	74.38	-0.2259	0.0829	0.3088	894.2154	0.174943	-348.978764	-348.970249	-348.969305	-349.010748	33.179
C         -0.11870        1.57390        0.07410
C          0.01120        0.07840        0.02580
C         -0.81980       -0.85080        0.89730
C          0.67400       -0.92360        0.94070
O          1.16550       -1.72000       -0.13610
C          0.66280       -0.74090       -1.11360
C         -0.23330       -1.38740       -2.15930
C          1.85670       -0.03840       -1.74940
H          0.79810        2.07630       -0.25060
H         -0.93710        1.92480       -0.56670
H         -0.33800        1.91160        1.09210
H         -1.29400       -0.35200        1.73810
H         -1.38180       -1.68470        0.48740
H          1.29320       -0.82300        1.82550
H         -1.09180       -1.88560       -1.70430
H         -0.60290       -0.63390       -2.86310
H          0.32960       -2.13460       -2.72840
H          2.44470       -0.76060       -2.32380
H          1.53370        0.75790       -2.42870
H          2.50450        0.39680       -0.98380
