18
gdb 6532	3.38643	1.54613	1.29459	1.2892	64.83	-0.2364	0.065	0.3015	996.4667	0.150523	-422.052499	-422.043161	-422.042217	-422.08567	34.875
C         -0.03230        1.52960        0.00450
C          0.00690        0.01940        0.02950
O         -1.15620       -0.60030       -0.46860
C          1.32350       -0.71340       -0.17610
C          0.63320       -0.69630        1.18300
O          1.17810        0.10980        2.18810
C          0.03080       -1.96660        1.72840
O          1.07810       -2.61140        2.46030
H          0.84080        1.95220        0.50420
H         -0.05370        1.89530       -1.02940
H         -0.93110        1.89150        0.51330
H         -1.17550       -0.45770       -1.42160
H          1.30090       -1.63780       -0.74330
H          2.22480       -0.11870       -0.27660
H          1.71140       -0.49000        2.72630
H         -0.80750       -1.71400        2.39310
H         -0.34830       -2.59830        0.91830
H          0.68040       -3.25600        3.05160
