18
gdb 19585	4.00791	1.98887	1.8316	1.7843	69.96	-0.2511	0.0926	0.3437	807.6073	0.155704	-347.755683	-347.749342	-347.748398	-347.785711	26.415
C         -0.14360        1.54790        0.00570
C         -0.00970        0.03050        0.01400
C          1.09090       -0.59890       -0.89800
C          2.10760       -0.27290        0.25320
C          0.85880       -0.60830        1.14390
C          0.74850       -2.11960        0.82650
O         -0.33280       -2.51360       -0.03440
C          0.91370       -2.11290       -0.62720
H          0.80570        2.07900        0.11630
H         -0.59970        1.88180       -0.93300
H         -0.79950        1.87370        0.82070
H         -0.99560       -0.41980       -0.10020
H          1.24740       -0.27800       -1.92820
H          2.98080       -0.92570        0.34940
H          2.42360        0.77010        0.29390
H          0.77990       -0.29690        2.18580
H          1.12390       -2.88140        1.50140
H          1.43180       -2.86900       -1.20750
