14
gdb 16050	3.74564	1.73125	1.43821	4.4787	63.28	-0.2552	0.0091	0.2643	860.0363	0.108567	-378.679479	-378.672606	-378.671662	-378.710481	26.059
O          0.00440        1.37000        0.04090
C         -0.03300       -0.00790        0.01550
C         -0.45540       -0.79150        1.20350
N         -1.42420        0.04520        1.93220
C         -2.40720       -0.08110        0.80260
C         -1.35720       -0.79390       -0.06280
C         -1.61240       -1.79780       -1.03320
N         -1.81480       -2.62090       -1.82330
H         -0.34630        1.62770        0.90880
H          0.75110       -0.44320       -0.59590
H          0.10460       -1.59150        1.67310
H         -1.76180       -0.39830        2.77750
H         -3.24690       -0.73580        1.04560
H         -2.77720        0.87650        0.42520
