10
gdb 504	20.75251	1.47057	1.44259	1.8826	41.52	-0.2773	-0.0513	0.226	751.1914	0.070248	-342.324182	-342.31767	-342.316725	-342.355599	20.074
O         -0.09600        0.09850        0.25110
C          0.17990        1.11700       -0.32060
C          1.32260        2.02610        0.11760
O          1.25800        3.26120       -0.58260
C          2.30620        3.61440       -1.36220
O          2.32640        4.62600       -1.98950
H         -0.36920        1.47900       -1.21720
H          1.24510        2.21660        1.19250
H          2.27500        1.50890       -0.06660
H          3.12240        2.86530       -1.34180
