20
gdb 6587	3.79877	1.78986	1.54038	1.3436	74.44	-0.2492	0.0779	0.3271	911.7744	0.178026	-349.006908	-348.999369	-348.998425	-349.037851	30.978
C         -0.01330        1.51200        0.01460
C          0.03370        0.00280        0.03470
C          0.99630       -0.81410       -0.88600
C          0.71580       -1.93040        0.14510
O          1.60190       -3.00490        0.21090
C          0.66000       -0.79710        1.21880
C         -0.77960       -2.22770       -0.09000
C         -1.29910       -0.75970       -0.17190
H          0.98010        1.94660        0.16690
H         -0.39680        1.88190       -0.94380
H         -0.67080        1.89680        0.80310
H          0.70320       -0.98620       -1.92630
H          2.02780       -0.45790       -0.83280
H          1.24990       -3.64920        0.83460
H          1.65790       -0.44100        1.48570
H          0.05280       -0.95250        2.11700
H         -0.93830       -2.79690       -1.01050
H         -1.22240       -2.79140        0.73910
H         -2.02980       -0.52270        0.60820
H         -1.75630       -0.52770       -1.13920
