19
gdb 7285	2.92739	1.38077	1.16441	4.113	69.16	-0.2448	0.0375	0.2823	1107.4179	0.163644	-402.233279	-402.223609	-402.222665	-402.268075	34.424
C         -0.11690        1.52220        0.18210
C          0.07010        0.01770        0.00300
O          0.88220       -0.27700       -1.13770
C          0.76920       -0.65530        1.19630
C          0.72050       -2.18560        1.10110
N          2.14150       -0.17030        1.27920
C          2.74620        0.17410        2.44300
O          2.22900        0.13960        3.54130
H          0.84520        2.01540        0.34380
H         -0.58770        1.96150       -0.70510
H         -0.76370        1.73370        1.03930
H         -0.91720       -0.45680       -0.11110
H          0.52920        0.20260       -1.89290
H          0.27810       -0.33650        2.11940
H          1.23260       -2.63180        1.95720
H         -0.31630       -2.53800        1.09930
H          1.20040       -2.53030        0.18120
H          2.65640       -0.12220        0.41330
H          3.79200        0.50450        2.27980
