16
gdb 8641	2.1912	1.88158	1.63118	0.8214	72.48	-0.2651	0.0134	0.2785	938.2144	0.125614	-346.517391	-346.50802	-346.507076	-346.550701	34.087
C         -0.05450        1.39750        0.07810
O          0.00750       -0.01680       -0.00590
C          0.66320       -0.54250       -1.15720
C          0.58690       -2.07280       -0.99400
C         -0.02460       -0.13350       -2.39890
C         -0.60900        0.17950       -3.40090
C          2.07510       -0.11170       -1.21310
C          3.22990        0.21910       -1.23300
H          0.94740        1.84370        0.11330
H         -0.60800        1.82770       -0.76620
H         -0.58220        1.62210        1.00720
H         -0.46200       -2.37170       -0.94390
H          1.06860       -2.56930       -1.83790
H          1.09020       -2.35560       -0.06730
H         -1.11850        0.46150       -4.28950
H          4.24990        0.51480       -1.25940
