21
gdb 7541	3.69351	1.26575	1.11414	2.0071	75.37	-0.2279	0.0689	0.2968	1167.7861	0.187301	-366.241547	-366.231842	-366.230898	-366.275808	35.435
C          0.02610        1.13330       -0.46200
C         -0.04840       -0.20980        0.22590
N          1.16770       -1.03820        0.23390
C          0.61810       -0.55570        1.51800
C          1.48200        0.44850        2.25710
C         -0.08380       -1.56700        2.42130
C          0.80160       -2.72580        2.88010
O          0.97370       -3.60690        1.77170
H          0.99470        1.61230       -0.30630
H         -0.11170        1.01330       -1.54240
H         -0.75840        1.80610       -0.09730
H         -0.99060       -0.73140        0.05220
H          0.95100       -2.02530        0.12540
H          2.05240        1.06720        1.56300
H          0.87160        1.10280        2.89060
H          2.20470       -0.06000        2.90600
H         -0.47460       -1.05210        3.30770
H         -0.94550       -2.00650        1.90540
H          1.77150       -2.35300        3.24040
H          0.31880       -3.25240        3.71780
H          1.69260       -4.21340        1.97020
