13
gdb 1001	4.14183	3.3009	1.85838	3.2284	55.16	-0.1984	0.047	0.2454	648.2207	0.103022	-340.664901	-340.65818	-340.657236	-340.695735	23.654
C         -0.02850        1.45560        0.02890
N         -0.01650        0.00760        0.01250
C         -0.15900       -0.83050       -1.06890
N         -0.09930       -2.09190       -0.72920
C          0.09150       -2.10130        0.63890
C          0.14320       -0.81210        1.10050
O          0.30670       -0.22740        2.31410
H          0.91720        1.85010        0.41190
H         -0.17410        1.81390       -0.99150
H         -0.84090        1.83270        0.65680
H         -0.30180       -0.43970       -2.06560
H          0.17870       -3.01880        1.20050
H          0.40540       -0.92040        2.97400
