18
gdb 12000	3.30379	2.00995	1.77155	1.1429	72.34	-0.2328	0.0128	0.2455	838.8866	0.153685	-347.800444	-347.79292	-347.791976	-347.831525	30.055
C         -0.14860        1.58600        0.00810
C          0.02290        0.06280       -0.00700
O         -1.27230       -0.56070        0.03310
C          0.84320       -0.44670       -1.18420
C          1.80950       -1.28540       -0.80340
C          1.87230       -1.41770        0.67970
C          2.21910       -0.13180        1.41140
C          0.77840       -0.50610        1.19690
H          0.81450        2.10210        0.04680
H         -0.67010        1.92230       -0.89650
H         -0.74520        1.88570        0.87430
H         -1.74220       -0.31130       -0.76990
H          0.64270       -0.12930       -2.20280
H          2.50650       -1.78480       -1.46780
H          2.11120       -2.36950        1.14020
H          2.59920       -0.21580        2.42480
H          2.65690        0.67350        0.83070
H          0.17320       -0.77920        2.05250
