19
gdb 8365	5.43905	1.17723	1.15016	2.6434	72.72	-0.2257	0.0802	0.3059	1121.6822	0.165846	-364.966417	-364.958539	-364.957595	-364.999293	28.961
C         -0.01190        1.36270       -0.00860
O         -0.00250       -0.04460       -0.02560
C         -1.29700       -0.60620        0.01970
C         -1.15840       -2.10480       -0.00390
C         -0.42630       -3.03220        0.99420
N         -0.97250       -4.04100       -0.03440
C         -2.25590       -3.19080        0.02730
C         -0.50960       -3.00750       -1.07920
H          1.02760        1.69760       -0.04630
H         -0.55150        1.77870       -0.87440
H         -0.48000        1.75770        0.90720
H         -1.82910       -0.28690        0.93350
H         -1.90040       -0.26550       -0.84060
H          0.66480       -2.98880        1.02820
H         -0.85460       -3.15540        1.99330
H         -2.82370       -3.32540        0.95270
H         -2.89630       -3.30390       -0.85250
H         -1.01690       -3.10730       -2.04340
H          0.57520       -2.96220       -1.19970
