17
gdb 10135	2.8376	1.25245	0.91504	3.7369	74.67	-0.2841	0.0145	0.2986	1262.1077	0.140107	-326.710587	-326.701346	-326.700402	-326.744865	32.528
C         -0.05030        1.57930        0.02150
C          0.00910        0.04940        0.00860
C          0.71520       -0.49420       -1.23600
C          0.78010       -2.04820       -1.28070
C          1.34690       -2.53400       -2.53950
C          1.80130       -2.90100       -3.58790
C          1.53380       -2.57870       -0.13110
N          2.11560       -2.97420        0.78500
H          0.95480        2.01400        0.00910
H         -0.58980        1.96490       -0.85050
H         -0.56000        1.94480        0.91760
H          0.52650       -0.30770        0.90660
H         -1.00900       -0.35960        0.05550
H          0.19330       -0.17180       -2.14330
H          1.73630       -0.10410       -1.30060
H         -0.24590       -2.43200       -1.18730
H          2.20650       -3.23760       -4.51030
