14
gdb 20491	5.01238	2.02383	1.4683	3.0317	63.1	-0.2319	0.0117	0.2436	795.2331	0.110836	-378.728035	-378.72185	-378.720906	-378.759025	22.908
C         -0.04570        1.53980        0.09740
O          1.28030        1.92540       -0.31720
C          2.11910        0.79990       -0.62460
C          1.23570       -0.38040       -0.37910
N          1.34730       -1.69650       -0.45880
N          0.11800       -2.11980       -0.07680
C         -0.74520       -1.10860        0.23490
C         -0.03000        0.04930        0.04290
H         -0.23410        1.94010        1.10350
H         -0.77780        1.99610       -0.58370
H          2.46180        0.87280       -1.66580
H          3.00600        0.81690        0.02350
H         -0.06630       -3.10840       -0.05010
H         -1.75490       -1.31340        0.55330
