12
gdb 4417	3.8819	2.10083	1.36313	3.0659	62.28	-0.2261	-0.0534	0.1727	818.0857	0.085329	-414.696069	-414.689769	-414.688824	-414.726735	23.719
O          0.06100        1.31180        0.00740
C         -0.03600       -0.01170        0.00100
C         -1.21400       -0.68910        0.00400
C         -1.08680       -2.10390       -0.00420
N          0.03790       -2.75980       -0.01390
C          1.21720       -2.05240       -0.01670
N          2.40330       -2.48550       -0.02580
O          1.14030       -0.62280       -0.00880
H          1.00060        1.54550        0.00330
H         -2.16120       -0.17380        0.01200
H         -1.99390       -2.70750       -0.00230
H          2.36850       -3.50320       -0.03110
