13
gdb 19332	5.01592	1.70761	1.52207	3.4575	62.5	-0.258	0.0032	0.2611	806.4374	0.095671	-361.394555	-361.388373	-361.387429	-361.424787	24.021
N          0.08420       -1.14850       -0.03930
C          0.05010        0.00950       -0.02570
C         -0.00880        1.42660        0.02170
C          0.24260        2.33410       -1.16890
C          1.15990        2.43470        0.00700
C          0.48880        3.17440        1.20530
O         -0.83460        3.58190        0.82470
C         -0.62120        2.23250        1.22780
H          0.65440        1.82750       -2.03430
H         -0.46980        3.12250       -1.37360
H          2.21130        2.18650       -0.03270
H          0.98460        3.72850        1.99130
H         -1.22600        1.81930        2.02470
