18
gdb 5226	6.61146	1.08499	0.99243	1.4988	75.59	-0.185	0.0539	0.2389	1212.3991	0.15568	-344.013649	-344.005538	-344.004594	-344.04695	29.927
C          0.17610        1.58590        0.11110
C          0.54430        0.10720        0.05960
N          0.15120       -0.57040        1.30730
C          0.48320       -1.93640        1.39450
C         -0.20270       -3.09570        1.09760
C          0.64590       -4.19140        1.42850
C          1.82610       -3.67220        1.90420
N          1.71610       -2.30270        1.88160
H          0.65280        2.07520        0.96540
H          0.48990        2.09480       -0.80510
H         -0.90770        1.71950        0.20890
H          0.09080       -0.36710       -0.82660
H          1.62870       -0.00540       -0.05000
H         -0.84340       -0.44900        1.46130
H         -1.19800       -3.14690        0.68240
H          0.41730       -5.24050        1.31870
H          2.72610       -4.15260        2.25180
H          2.38510       -1.64530        2.24330
