18
gdb 17285	4.46281	1.24118	1.16086	2.4225	68.05	-0.2364	0.074	0.3104	1090.5898	0.152095	-384.885758	-384.877465	-384.876521	-384.919787	30.743
O         -0.11560        1.36500        0.16640
C         -0.06970       -0.02490        0.24690
C         -0.98210       -0.75260        1.21400
C         -1.23800       -0.80290       -0.27950
O         -2.23330        0.00640       -0.83920
C         -3.53390       -0.50680       -0.74210
C         -4.41770       -0.10450        0.40760
C         -4.64650        0.45810       -0.98300
H         -0.92200        1.58120       -0.32000
H          0.93080       -0.41570        0.08520
H         -0.62800       -1.65240        1.70590
H         -1.64050       -0.12890        1.80690
H         -1.07540       -1.73900       -0.81250
H         -3.63030       -1.51820       -1.13430
H         -5.11790       -0.83100        0.80510
H         -3.99610        0.57050        1.14280
H         -4.36340        1.49150       -1.14860
H         -5.50510        0.12600       -1.55510
