20
gdb 16696	2.63913	2.27798	1.72025	1.7381	73.52	-0.2396	0.0813	0.3209	880.9393	0.178435	-348.98832	-348.980799	-348.979855	-349.019594	29.873
C         -0.15650        1.61420       -0.05170
C          0.00510        0.10220       -0.00660
C          1.08390       -0.67650       -0.80060
C          2.43260       -0.09990       -0.31440
C          2.16470       -0.20970        1.22530
C          2.43210        1.02390        2.08610
C          0.70630       -0.71890        1.11410
O          0.87820       -1.78840        0.12720
H          0.79340        2.15230       -0.05720
H         -0.70030        1.90360       -0.95770
H         -0.73880        1.97240        0.80430
H         -0.95580       -0.38430       -0.19490
H          0.97390       -0.94450       -1.85220
H          3.27230       -0.71560       -0.64350
H          2.60730        0.92610       -0.65300
H          2.75060       -1.04080        1.63010
H          1.88420        1.90760        1.75110
H          2.15040        0.83710        3.12870
H          3.49800        1.27490        2.07760
H          0.19490       -1.03210        2.02610
