15
gdb 16875	3.82105	2.07966	1.63815	3.498	60.68	-0.2391	0.0046	0.2437	788.2101	0.120693	-399.803886	-399.797424	-399.79648	-399.834559	24.711
O         -0.09030       -0.05490       -0.34900
C         -0.03850        1.06200        0.08280
C         -1.20180        2.05210        0.01860
N         -1.31730        3.01770        1.11150
C         -0.94050        2.55050        2.45330
C         -0.03770        3.43860        1.67570
C          1.21120        2.88430        1.03220
O          1.09610        1.49720        0.69280
H         -1.11410        2.61430       -0.92030
H         -2.11740        1.46030       -0.04970
H         -1.53780        2.95990        3.26200
H         -0.64560        1.51240        2.58440
H          0.03190        4.49460        1.93180
H          1.45060        3.45860        0.12640
H          2.07080        2.95180        1.70450
