18
gdb 20155	3.42321	2.95492	2.66855	0.0844	72.58	-0.2529	0.1001	0.3529	664.1765	0.15865	-310.653195	-310.648184	-310.647239	-310.681814	23.005
C         -0.05190        1.57830        0.01160
C          1.46880        1.80100        0.03480
C          1.93920        0.99730        1.26310
C          2.49730       -0.09700        0.39290
C          1.12870       -0.27030        1.03530
C          0.04110        0.03280       -0.04350
C          0.83030       -0.15160       -1.36390
C          2.06290        0.63590       -0.89160
H         -0.53160        1.95200        0.92200
H         -0.56020        2.00250       -0.86090
H          1.85530        2.80790       -0.11110
H          2.25830        1.36370        2.23130
H          3.34110       -0.75950        0.54310
H          0.97890       -0.98290        1.83540
H         -0.89000       -0.52380        0.05930
H          1.07410       -1.19650       -1.58150
H          0.31640        0.28350       -2.22770
H          2.82350        0.90950       -1.62060
