15
gdb 20799	3.25628	1.82668	1.26608	4.0091	64.38	-0.2265	-0.0298	0.1967	950.3588	0.118612	-395.964963	-395.956906	-395.955961	-395.998228	28.18
C          0.08910        1.59010        0.25420
C          0.00640        0.07640       -0.01440
C         -1.38740       -0.43590       -0.10770
C         -2.15710       -0.88660       -1.14200
N         -1.84550       -1.05890       -2.49370
N         -3.37430       -1.24330       -0.61100
N         -3.39020       -1.04250        0.63710
O         -2.13810       -0.50250        1.00460
H          1.13300        1.90880        0.32220
H         -0.39070        2.16060       -0.54690
H         -0.40920        1.84480        1.19340
H          0.51450       -0.17360       -0.95160
H          0.52860       -0.46450        0.78360
H         -1.61240       -0.19200       -2.96270
H         -2.61890       -1.49720       -2.97890
