19
gdb 10308	2.45584	1.68447	1.06892	4.2174	72.67	-0.2453	0.0394	0.2847	1132.0409	0.16495	-361.24024	-361.230429	-361.229485	-361.274774	34.762
C          0.12040        1.51440        0.06820
N         -0.11110        0.08260       -0.11630
C          0.64150       -0.51740       -1.21150
C          2.10560       -0.45690       -0.98010
N          3.22060       -0.34170       -0.69580
C          0.19220       -1.97590       -1.48280
C         -1.31730       -2.05030       -1.73930
N          1.02250       -2.51070       -2.56360
H          1.17590        1.78090        0.23090
H         -0.23500        2.05440       -0.81620
H         -0.46240        1.85960        0.92610
H          0.10940       -0.41030        0.74400
H          0.43100        0.07150       -2.11550
H          0.43270       -2.55830       -0.58350
H         -1.57840       -1.49010       -2.64580
H         -1.62060       -3.09130       -1.88910
H         -1.88870       -1.62870       -0.90980
H          0.92350       -3.51920       -2.61350
H          0.70300       -2.14840       -3.45880
