17
gdb 1486	6.65187	1.18922	1.08467	3.2998	61.58	-0.2432	-0.0202	0.223	1082.4836	0.145479	-346.866543	-346.857832	-346.856888	-346.900174	29.997
C          0.06510        1.54600        0.12130
C          0.00440        0.02260       -0.01150
C         -1.42830       -0.52230       -0.03440
O         -2.19950        0.04800       -1.08980
C         -1.46030       -2.06130       -0.10180
C         -2.86450       -2.62120       -0.00890
O         -3.17770       -3.55470        0.68580
H          1.09760        1.90450        0.07950
H         -0.50100        2.02830       -0.67980
H         -0.36500        1.87410        1.07370
H          0.51260       -0.29730       -0.93380
H          0.54860       -0.45220        0.81390
H         -1.94260       -0.19710        0.87940
H         -1.74090       -0.13160       -1.91900
H         -1.03710       -2.37410       -1.06940
H         -0.85140       -2.51410        0.68630
H         -3.61000       -2.09520       -0.64260
