15
gdb 15021	2.50612	1.83205	1.11495	3.9205	70.89	-0.2839	0.0148	0.2987	1032.3295	0.117557	-325.485106	-325.476979	-325.476035	-325.518008	29.393
C         -0.19030       -1.11020        0.10400
C         -0.05150        0.08030        0.04640
C          0.09120        1.53600       -0.04390
C          1.51490        1.92330       -0.06240
N          2.62300        2.24770       -0.08670
C         -0.63950        2.11550       -1.25820
C         -2.10620        2.42970       -1.14880
C         -1.09670        3.54870       -1.23270
H         -0.30530       -2.16480        0.16000
H         -0.34460        1.98680        0.85930
H         -0.28130        1.72020       -2.20240
H         -2.73330        2.22860       -2.00950
H         -2.59370        2.25400       -0.19550
H         -0.90380        4.12850       -0.33610
H         -1.02640        4.11950       -2.15120
