15
gdb 20013	4.64438	1.24756	1.10272	2.4504	63.7	-0.2589	-0.0037	0.2552	1051.7466	0.117885	-399.759997	-399.752416	-399.751472	-399.792679	26.657
O          0.16500        0.22040       -0.54300
C          0.15690        1.34890       -0.11720
N          1.22120        1.95920        0.52550
C          2.60380        1.82970        0.13870
C          1.91380        3.16920        0.11690
C          1.58210        3.80690       -1.19400
C          0.97870        5.14440       -1.26990
O          2.36830        4.94560       -1.53760
H         -0.73940        1.99830       -0.12780
H          3.30590        1.60250        0.93540
H          2.80530        1.34620       -0.81420
H          2.12680        3.87580        0.91690
H          1.40200        3.10900       -2.01440
H          0.36830        5.41130       -2.13080
H          0.75370        5.68430       -0.35100
