17
gdb 14196	3.69736	2.2719	2.08678	1.606	66.81	-0.2307	0.0744	0.3051	743.0624	0.144176	-363.811681	-363.805534	-363.80459	-363.841511	25.563
C          0.02080        1.49930       -0.02320
C          0.01750       -0.00540        0.00640
C         -1.31000       -0.79640       -0.13610
C         -0.70990       -2.08660        0.44180
O         -0.39930       -1.66630        1.80460
C          0.63770       -0.89660        1.19920
C          0.82480       -1.85890        0.02340
N          0.95500       -0.73680       -0.90500
H          1.03640        1.88790        0.09500
H         -0.37620        1.87980       -0.97180
H         -0.60260        1.90000        0.78290
H         -2.12990       -0.43860        0.49070
H         -1.63610       -0.85690       -1.17930
H         -1.24160       -3.03460        0.38290
H          1.39620       -0.48950        1.86450
H          1.50960       -2.70390       -0.02440
H          0.58350       -0.89780       -1.84170
