13
gdb 5141	6.03239	1.33816	1.14937	2.0842	63.53	-0.2384	0.0097	0.2481	966.9679	0.098103	-357.69495	-357.688121	-357.687177	-357.72706	24.249
N         -0.12970       -0.93910       -0.90300
C         -0.06820        0.06630       -0.33700
C          0.03780        1.36900        0.32680
C          1.41090        1.96350        0.21900
C          2.17120        2.67740        1.10840
N          3.35840        3.06620        0.53400
C          3.32320        2.58980       -0.68830
N          2.16200        1.91960       -0.93710
H         -0.72580        2.02730       -0.11060
H         -0.22200        1.25420        1.38390
H          1.92620        2.93370        2.12840
H          4.09880        2.69060       -1.43260
H          1.92360        1.41590       -1.77670
