15
gdb 15965	3.11585	1.94757	1.37265	3.3097	65.75	-0.2568	0.0038	0.2606	888.4459	0.120314	-358.795202	-358.788022	-358.787078	-358.82682	26.584
N         -0.27380       -0.92970       -0.77170
C         -0.14960        0.13680       -0.34330
C          0.03420        1.50220        0.15010
N          0.15760        1.64270        1.62020
C          1.30460        2.58340        1.48260
C          1.43930        2.13640        0.02700
C          2.59640        1.60410       -0.71410
N          1.98810        2.90870       -1.06350
H         -0.73400        2.14310       -0.30830
H         -0.66680        2.02020        2.07260
H          1.04360        3.64660        1.56400
H          2.13870        2.36300        2.15510
H          3.59070        1.66710       -0.28130
H          2.43040        0.75260       -1.36870
H          1.41490        2.82570       -1.90020
