18
gdb 7852	3.78252	1.26812	1.22267	1.794	68.99	-0.2632	0.0162	0.2794	1098.4969	0.151465	-384.967743	-384.958678	-384.957734	-385.002724	31.674
C         -0.21890        1.38690        0.42510
C          0.07330       -0.07460        0.17210
C          1.43820       -0.51000       -0.33290
C          1.01110       -0.84570        1.06010
O          1.70050       -0.15060        2.08540
C          1.23290       -0.33100        3.34610
C          2.06050        0.46180        4.32900
O          0.29800       -1.03710        3.62030
H          0.65680        1.89830        0.83330
H         -0.50510        1.89470       -0.50170
H         -1.03980        1.50550        1.14070
H         -0.77330       -0.65010       -0.19320
H          1.51390       -1.31090       -1.05980
H          2.19200        0.26430       -0.43150
H          0.76470       -1.86400        1.33430
H          2.01790        1.52670        4.08280
H          1.68110        0.29800        5.33670
H          3.10890        0.15660        4.26920
