18
gdb 14183	2.7641	2.26847	2.09829	1.7352	71.8	-0.2253	0.088	0.3134	808.1773	0.152441	-347.72824	-347.7208	-347.719856	-347.759309	29.244
C         -0.00060        1.48870       -0.02270
C          0.04800       -0.00980       -0.09670
C          0.61740       -0.94690       -1.18820
C          0.08020       -1.93890       -0.13460
C          0.46110       -0.99880        1.04280
O         -0.85570       -1.02580        1.66590
C         -1.12790       -1.01110        0.22420
C         -2.54640       -1.02820       -0.24610
H          1.00470        1.92270       -0.05340
H         -0.57080        1.91210       -0.85710
H         -0.47860        1.80130        0.91190
H          0.11050       -0.93650       -2.15810
H          1.70220       -0.92650       -1.33020
H          0.08720       -3.02870       -0.12590
H          1.34340       -0.99970        1.68290
H         -3.08530       -0.14860        0.12010
H         -2.58440       -1.02740       -1.34020
H         -3.06120       -1.92310        0.11700
