18
gdb 10506	3.52402	1.29698	1.08289	2.7096	68.31	-0.248	-0.025	0.223	1127.5598	0.150901	-384.932176	-384.923237	-384.922292	-384.9665	31.532
C         -0.85030        1.13140       -0.17540
C          0.03120       -0.10440        0.04300
C          0.61920       -0.66610       -1.24020
C          1.61860        0.22610       -1.96820
C          2.11700       -0.32960       -3.28720
O          3.27290       -0.32520       -3.62710
C          0.66260       -2.12350       -1.43450
O         -0.33340       -1.32830       -2.08890
H         -0.27810        1.98480       -0.55280
H         -1.64670        0.91140       -0.89270
H         -1.31590        1.44160        0.76430
H          0.84960        0.13070        0.73530
H         -0.56490       -0.89330        0.51410
H          1.12840        1.18320       -2.19890
H          2.48040        0.44580       -1.33040
H          1.31880       -0.73140       -3.94570
H          1.41170       -2.56720       -2.09040
H          0.29110       -2.78320       -0.65200
