10
gdb 23760	3.38172	2.36569	1.39195	1.0658	50.79	-0.278	-0.0527	0.2252	756.6392	0.061156	-462.754284	-462.748643	-462.747699	-462.784286	20.676
F          0.00600        0.01340        0.00330
C         -0.02270        1.33960        0.01070
C         -1.20920        2.04810        0.03000
N         -1.23080        3.38650        0.03740
C         -0.04750        3.99040        0.02520
N          1.15250        3.39740        0.00630
C          1.15510        2.08870       -0.00070
F          2.31710        1.46440       -0.01920
H         -2.15730        1.51720        0.03950
H         -0.04710        5.07610        0.03090
