20
gdb 6760	5.4715	0.69725	0.65706	0.8781	82.38	-0.2414	0.0402	0.2816	1794.5699	0.174002	-348.970049	-348.959624	-348.958679	-349.007951	35.372
C          0.47050        1.39460        0.01840
O          0.62100       -0.00490        0.03630
C          0.12360       -0.60640       -1.14520
C          0.29690       -2.05140       -1.08830
C          0.42400       -3.24860       -1.06460
C          0.60330       -4.69990       -1.01690
C          1.72880       -5.15580       -1.96630
C          0.86170       -5.17220        0.42810
H          1.01830        1.85640       -0.81910
H         -0.58750        1.69340       -0.06040
H          0.87580        1.77600        0.95830
H         -0.94530       -0.36070       -1.27670
H          0.64690       -0.19940       -2.02880
H         -0.33260       -5.16490       -1.35790
H          1.52960       -4.84010       -2.99390
H          2.68760       -4.72630       -1.65990
H          1.81990       -6.24670       -1.95090
H          0.04700       -4.87160        1.09190
H          0.95150       -6.26280        0.45880
H          1.78960       -4.73910        0.81380
