15
gdb 17047	5.47348	1.34224	1.27443	2.7955	62.64	-0.2328	-0.0191	0.2137	970.6898	0.118062	-399.718077	-399.710777	-399.709833	-399.749771	26.902
C          0.17200        1.41260        0.16000
N         -0.25790        0.07980       -0.25150
C          0.50730       -0.47650       -1.32290
C          1.91160       -1.15520       -1.02610
O          1.16230       -2.25200       -0.34580
C          0.33140       -1.99860       -1.55970
C          1.69550       -1.99730       -2.30030
O          2.26340       -2.47760       -3.22380
H          1.22250        1.47000        0.49150
H          0.04680        2.11080       -0.67500
H         -0.46380        1.75790        0.97960
H         -0.23180       -0.56260        0.53420
H          0.47050        0.16780       -2.20780
H          2.80750       -0.77910       -0.53750
H         -0.57710       -2.58440       -1.68170
