16
gdb 2379	4.52408	1.92778	1.72269	3.8353	62.24	-0.2386	-0.0158	0.2228	803.2693	0.135276	-325.773014	-325.765199	-325.764255	-325.805121	27.773
C          0.08640        1.57850       -0.53610
C         -0.07470        0.14950       -0.08140
N          1.12410       -0.67620       -0.02850
C          0.43900       -0.36720        1.24110
C          1.15260        0.51910        2.22380
C          0.68920        0.38450        3.66430
O          2.01660        1.30030        1.89660
H          1.01750        1.99720       -0.15360
H          0.10620        1.61940       -1.63050
H         -0.75270        2.19210       -0.19110
H         -0.99570       -0.33370       -0.40940
H          0.92180       -1.63600       -0.29550
H         -0.15940       -1.15380        1.69740
H          0.89830       -0.62620        4.03480
H          1.20290        1.11580        4.28890
H         -0.39510        0.52960        3.73540
