15
gdb 12684	2.76269	2.41399	1.56341	1.6884	57.85	-0.2747	0.0117	0.2863	813.5964	0.120127	-436.950646	-436.943556	-436.942611	-436.981848	27.07
O         -0.30190        1.25090        0.95820
C          0.01830        0.13640        0.15960
C          0.81550       -0.87440        0.98910
O         -0.16540       -1.68570        1.68450
C         -1.38160       -1.50260        1.12750
N         -2.49850       -1.89500        1.56410
C         -1.25620       -0.67490       -0.13730
O         -2.38170        0.13930       -0.34570
H         -1.19790        1.50720        0.69320
H          0.56100        0.43140       -0.74830
H          1.43370       -1.52690        0.36340
H          1.43630       -0.38240        1.73920
H         -2.42120       -2.39510        2.44890
H         -1.08630       -1.34340       -0.99550
H         -3.08660       -0.25920        0.19020
