12
gdb 876	6.98062	2.21842	1.70172	2.9043	52.81	-0.2014	0.0306	0.232	687.7705	0.092201	-356.724041	-356.71771	-356.716766	-356.753876	23.545
N         -0.01630        1.37570       -0.00090
C         -0.09940       -0.00900        0.00470
C         -1.11730       -0.88660        0.12190
N         -0.64890       -2.19800        0.07730
C          0.63250       -2.05400       -0.07640
N          1.56800       -3.04460       -0.25760
O          1.07420       -0.78330       -0.12980
H          0.51480        1.74690        0.78050
H          0.37900        1.74550       -0.85950
H         -2.16470       -0.65980        0.24150
H          1.23230       -3.94940        0.03930
H          2.48900       -2.82470        0.09260
