12
gdb 3809	7.82487	2.12515	1.68907	1.6323	51.94	-0.2515	-0.0015	0.25	694.6579	0.090849	-360.497728	-360.491704	-360.49076	-360.527704	21.39
C         -0.01460        1.39950        0.00840
O          0.00410       -0.03080        0.00280
C         -1.18970       -0.62670        0.00980
N         -2.32640        0.03400        0.02130
O         -3.31510       -0.95530        0.02520
C         -2.72500       -2.15900        0.01590
C         -1.37650       -2.04140        0.00580
H          1.03050        1.71000        0.00120
H         -0.53350        1.78300       -0.87540
H         -0.51930        1.77620        0.90320
H         -3.39280       -3.00700        0.01790
H         -0.62460       -2.81100       -0.00300
