12
gdb 21674	5.73259	1.69279	1.30865	2.686	62.29	-0.2316	-0.0857	0.1458	852.9583	0.084956	-410.816204	-410.809546	-410.808602	-410.847083	24.901
N          0.02350        1.36180        0.11530
C         -0.04100        0.00190       -0.04160
N         -1.20160       -0.56870       -0.07710
O         -1.19320       -1.95930       -0.36200
C         -0.02990       -2.64060       -0.54210
N          0.02040       -3.88320       -0.80720
C          1.19940       -1.85860       -0.40370
N          1.21940       -0.60180       -0.17080
H          0.88110        1.70010        0.52250
H         -0.82350        1.81360        0.42360
H         -0.91800       -4.28320       -0.86800
H          2.13340       -2.40670       -0.50690
