15
gdb 13863	4.10139	1.64572	1.43036	4.5044	57.22	-0.2363	0.0184	0.2546	883.6231	0.119724	-436.961771	-436.954213	-436.953269	-436.994799	27.017
N         -0.06810        0.91960       -0.78520
C          0.00450       -0.10270        0.10960
O          1.00700       -0.44210        0.70120
C         -1.31310       -0.89160        0.29270
O         -2.42900       -0.14980       -0.17970
C         -3.16500       -0.99050       -1.07120
C         -2.08770       -1.94090       -1.58180
O         -1.26910       -2.10790       -0.43030
H          0.73390        1.52250       -0.87730
H         -0.97740        1.26100       -1.04880
H         -1.41300       -1.13800        1.35690
H         -3.95360       -1.52870       -0.52910
H         -3.61780       -0.36490       -1.84400
H         -2.46080       -2.92280       -1.88000
H         -1.52180       -1.49640       -2.41270
