14
gdb 1683	4.64855	1.83316	1.45161	3.4994	50.25	-0.256	0.0098	0.2657	810.3812	0.112764	-398.878264	-398.870448	-398.869503	-398.910363	27.846
N          0.04390        1.24330       -0.00880
C         -0.01960       -0.10890        0.03480
O          0.96460       -0.82910        0.08940
C         -1.41870       -0.73010        0.06440
O         -1.29840       -2.11890       -0.13410
C         -2.11460       -0.48280        1.41830
O         -3.30760       -1.22550        1.48830
H          0.94830        1.68550       -0.03860
H         -0.77570        1.81040       -0.13920
H         -2.04260       -0.30980       -0.73700
H         -0.34690       -2.29830       -0.02860
H         -1.41460       -0.75320        2.22650
H         -2.37770        0.57400        1.53920
H         -3.06940       -2.11470        1.19330
