16
gdb 2186	3.90717	2.43065	1.6309	2.5704	62.21	-0.2291	-0.0213	0.2078	778.9351	0.134884	-325.771459	-325.763875	-325.762931	-325.802997	27.143
C          0.01800        1.59520       -0.03670
C          0.08020        0.07850        0.03410
N          0.68560       -0.62870       -1.12510
C         -0.20610       -1.25400       -2.07820
C          1.50730       -1.51190       -0.26820
C          1.15390       -0.59140        0.90830
O          1.56060       -0.42990        2.01900
H          0.99520        2.00730       -0.30150
H         -0.70830        1.92270       -0.78740
H         -0.28530        2.00380        0.93220
H         -0.90910       -0.33530        0.30700
H         -0.81340       -0.49060       -2.57470
H          0.37420       -1.77020       -2.84960
H         -0.89100       -1.99020       -1.61460
H          1.09100       -2.52360       -0.12050
H          2.56180       -1.60040       -0.55000
