11
gdb 20479	6.75776	1.44946	1.29614	2.6859	52.64	-0.2974	-0.0822	0.2152	867.783	0.071686	-430.628643	-430.622425	-430.621481	-430.660217	21.488
C          0.23560        1.55250        0.09750
O          1.13110        0.50230       -0.24760
C         -0.21040        0.14740        0.07830
C         -0.41250       -0.61550        1.32560
N          0.24420       -0.46110        2.44100
O         -0.29200       -1.37330        3.27920
N         -1.29520       -2.07050        2.60990
N         -1.36320       -1.61510        1.44090
H          0.42220        2.02910        1.05760
H         -0.06090        2.20920       -0.71840
H         -0.81860       -0.21170       -0.74870
