13
gdb 20715	7.28669	1.27642	1.09353	2.6253	68.85	-0.2643	-0.0428	0.2215	1015.1372	0.097401	-357.688331	-357.681182	-357.680238	-357.720076	25.356
C         -0.00280        1.49030       -0.07090
C          0.00180       -0.00050        0.05130
N         -0.06230       -0.77430       -1.03680
N         -0.03820       -2.03110       -0.58190
C          0.04080       -2.09650        0.77820
C          0.06800       -0.78560        1.22300
C          0.07940       -3.32580        1.47630
N          0.11010       -4.34070        2.03350
H          0.90770        1.92670        0.35260
H         -0.06600        1.77520       -1.12280
H         -0.85370        1.93010        0.45950
H         -0.07710       -2.80080       -1.22990
H          0.12760       -0.45850        2.24790
