17
gdb 16512	3.74501	2.47251	1.81039	0.9254	75.14	-0.2069	-0.0343	0.1726	768.9289	0.142395	-326.607693	-326.601068	-326.600124	-326.637834	26.908
C          0.10210        1.47210        0.06600
C         -0.11340       -0.00160       -0.15820
C          0.76370       -0.75190       -1.18660
C          0.19930       -2.15390       -1.05080
C         -0.96430       -2.09390       -0.36400
C         -0.80790       -2.20310        1.15290
N         -0.71850       -0.66860        1.12990
C         -1.43100       -0.64760       -0.17870
H          1.08040        1.65940        0.52170
H          0.07180        2.00550       -0.89120
H         -0.66320        1.88950        0.72270
H          0.67780       -0.23700       -2.15550
H          1.83230       -0.77590       -0.94000
H          0.88030       -2.99130       -0.92240
H         -1.69690       -2.43780        1.74690
H          0.06440       -2.74130        1.53430
H         -2.41910       -0.21800       -0.30880
