17
gdb 3449	4.25499	2.69194	1.99803	1.5871	62.53	-0.2504	0.0798	0.3301	691.3732	0.150654	-309.718177	-309.711849	-309.710905	-309.748	25.221
O          0.42740        0.97430       -0.75680
C          0.02320       -0.13320        0.03220
C          0.44560       -0.03940        1.52070
C         -0.55450       -0.92850        2.28830
C         -1.83410       -0.87770        1.45680
C         -2.30450        0.47840        0.99660
C         -1.47640       -0.39000        0.07270
H         -0.10850        1.72800       -0.48590
H          0.51280       -0.99510       -0.43650
H          1.48660       -0.33380        1.67100
H          0.36750        1.00530        1.84260
H         -0.19340       -1.96300        2.32800
H         -0.70030       -0.60090        3.32360
H         -2.57720       -1.65430        1.60120
H         -3.35580        0.58260        0.75230
H         -1.87190        1.37000        1.44140
H         -1.95040       -0.79160       -0.81580
