17
gdb 2209	3.70002	2.44779	1.85398	0.2336	60.12	-0.2487	0.0547	0.3035	755.893	0.146997	-346.841836	-346.833931	-346.832986	-346.87414	28.584
C          0.15940        1.53540       -0.09540
C          0.02530        0.03730        0.08400
O          0.88080       -0.71670       -0.80960
C          1.40620       -1.52300        0.27330
C          2.91970       -1.58360        0.28310
C          0.67180       -0.64270        1.32420
O          1.44660        0.14790        2.18920
H          1.19200        1.87070        0.04350
H         -0.14610        1.81640       -1.10770
H         -0.47650        2.06690        0.61940
H         -1.02470       -0.26150       -0.04840
H          0.99270       -2.54100        0.22820
H          3.36610       -0.58590        0.34160
H          3.27570       -2.17290        1.13380
H          3.27790       -2.05250       -0.63830
H         -0.02480       -1.18090        1.96960
H          2.08340        0.64830        1.66910
