15
gdb 5395	5.22569	1.60365	1.2379	2.4235	72.88	-0.212	-0.0327	0.1793	945.5625	0.121441	-358.892629	-358.885473	-358.884529	-358.924301	26.017
C          0.00110        1.44490       -0.09140
N         -0.04290        0.01240        0.08840
C          0.61430       -0.65930        1.07870
N          0.62100       -1.99830        0.98820
C          1.23790       -2.65900        1.96580
C          1.85430       -2.01660        3.03350
N          1.85900       -0.68170        3.12420
C          1.24940       -0.00600        2.16060
H          1.02350        1.82620       -0.22770
H         -0.58040        1.70480       -0.97770
H         -0.44440        1.96850        0.76310
H         -0.33640       -0.56790       -0.68050
H          1.24180       -3.74420        1.89140
H          2.35210       -2.57440        3.82030
H          1.25700        1.07720        2.23580
