20
gdb 8406	3.42516	1.67495	1.46289	1.5606	75.56	-0.2195	0.0851	0.3047	974.322	0.175582	-348.978829	-348.970197	-348.969253	-349.011651	32.375
C         -0.13510        1.50880        0.09090
C         -0.00300       -0.00080        0.04150
C         -1.23930       -0.74240       -0.42860
C          1.35920       -0.58400       -0.33910
C          0.85980       -0.67470        1.06830
C          1.45080       -0.14770        2.37300
C          1.00890       -1.51470        2.93710
O          0.50020       -1.93310        1.64990
H          0.77560        1.98470        0.46820
H         -0.33010        1.91600       -0.90830
H         -0.96510        1.81330        0.73980
H         -1.46840       -0.49980       -1.47270
H         -1.10880       -1.82370       -0.34470
H         -2.11140       -0.46820        0.17660
H          1.36850       -1.50530       -0.91330
H          2.17630        0.09710       -0.56030
H          2.52900        0.02410        2.36180
H          0.95070        0.72380        2.80070
H          1.81420       -2.17070        3.28590
H          0.21730       -1.48200        3.69480
