19
gdb 7144	6.54899	0.83781	0.75687	2.1665	70.77	-0.2574	0.0385	0.296	1530.0349	0.163345	-402.199112	-402.189285	-402.188341	-402.234821	33.196
C          0.07830        1.50540       -0.16520
C          0.01150       -0.00210       -0.01090
O          0.66010       -0.58440       -1.15300
C          0.70180       -1.92870       -1.19630
N          0.20670       -2.66770       -0.29720
C          1.41610       -2.36850       -2.45840
O          1.45320       -3.77020       -2.49370
C          2.10230       -4.27910       -3.63610
H          1.11600        1.84860       -0.21090
H         -0.43020        1.82840       -1.07830
H         -0.40680        1.98820        0.68830
H          0.51530       -0.34610        0.89850
H         -1.02020       -0.36620        0.03670
H          0.36180       -3.64270       -0.55100
H          0.88770       -1.95450       -3.33320
H          2.43030       -1.93560       -2.46670
H          1.59630       -3.96900       -4.56330
H          3.15130       -3.94930       -3.68860
H          2.07610       -5.36870       -3.56500
