13
gdb 21560	7.25433	1.2934	1.09995	3.9683	70.35	-0.2125	0.0019	0.2144	1005.4811	0.096745	-357.628001	-357.620666	-357.619722	-357.659308	27.447
N          0.12410        1.40530        0.13030
C         -0.03800        0.02220        0.03720
C         -1.15430       -0.78760        0.02250
C         -0.63800       -2.11250        0.00260
N          0.69860       -2.12460       -0.00100
N          1.03300       -0.81470        0.02710
C         -1.38890       -3.31540       -0.02460
C         -2.05950       -4.31440       -0.04710
H          0.75370        1.78600       -0.56690
H         -0.76180        1.88960        0.07580
H         -2.18770       -0.48420        0.01120
H          2.00460       -0.56170        0.09210
H         -2.64050       -5.20270       -0.06590
