20
gdb 18597	3.25392	2.02791	1.68048	1.6034	73.69	-0.2394	0.0833	0.3227	879.3338	0.179259	-349.013868	-349.006631	-349.005686	-349.045026	28.784
C          0.25640        1.56850       -0.18510
C          0.10920        0.07820        0.04290
O          0.84820       -0.72200       -0.91440
C          1.34860       -1.59230        0.13060
C          2.86980       -1.58540        0.22000
C          3.19960       -0.21580        0.84430
C          2.04990        0.02680        1.84860
C          0.80530       -0.63720        1.22930
H          1.29780        1.89220       -0.11440
H         -0.11310        1.82840       -1.18230
H         -0.33360        2.12700        0.55000
H         -0.95810       -0.18850       -0.00070
H          0.90790       -2.59340        0.05800
H          3.19030       -2.40020        0.88200
H          3.33650       -1.74500       -0.75640
H          4.18410       -0.18900        1.31930
H          3.19400        0.55030        0.06310
H          2.27750       -0.47190        2.79780
H          1.90110        1.08650        2.07720
H          0.12610       -1.04600        1.97880
