4
gdb 25	0	4.73269	4.73269	0.0023	27.7	-0.3696	-0.0926	0.277	242.9308	0.015951	-185.648533	-185.644825	-185.64388	-185.667652	10.398
N          0.01750       -1.16130       -0.00420
C          0.00250       -0.00340        0.00180
C         -0.01610        1.37220        0.00930
N         -0.03260        2.53010        0.01610
