19
gdb 4539	3.79897	1.62287	1.1618	1.9086	80.38	-0.187	0.0539	0.2409	1071.4445	0.164975	-327.975869	-327.966798	-327.965854	-328.010147	32.178
C         -0.03290        1.43650        0.03870
N         -0.00110       -0.00880        0.02640
C         -0.02900       -0.79570       -1.10470
C          0.00750       -2.11840       -0.73020
C         -0.00380       -3.30690       -1.64390
C          0.05900       -2.12650        0.69500
C          0.05250       -0.82190        1.13870
C          0.09240       -0.27080        2.52570
H          0.85050        1.85240        0.53590
H         -0.04850        1.79950       -0.99040
H         -0.92490        1.81570        0.55050
H         -0.07230       -0.34400       -2.08420
H          0.89370       -3.92520       -1.52120
H         -0.86590       -3.95830       -1.45590
H         -0.04860       -2.99810       -2.69280
H          0.09800       -2.99930        1.33140
H          0.97070        0.36400        2.70200
H         -0.79250        0.33340        2.76490
H          0.13240       -1.09250        3.24430
