18
gdb 9396	5.27635	0.77829	0.70228	4.6423	69.09	-0.263	0.0238	0.2868	1538.0907	0.153103	-381.120277	-381.110612	-381.109668	-381.155395	33.443
N         -0.10780        1.49520        0.14900
C          0.03010        0.04400        0.00880
C          0.72350       -0.47230       -1.27790
C         -0.03040       -0.08720       -2.55210
C          0.62570       -0.63900       -3.81220
O         -0.13810       -0.19620       -4.92180
C          0.74410       -0.47880        1.18700
N          1.33320       -0.90490        2.08480
H          0.79930        1.94410        0.05890
H         -0.69760        1.85530       -0.59380
H         -0.98410       -0.37590        0.04240
H          1.74730       -0.07740       -1.30370
H          0.81190       -1.56350       -1.20940
H         -1.06300       -0.45640       -2.50890
H         -0.08800        1.00290       -2.65190
H          1.66740       -0.28330       -3.87420
H          0.66070       -1.73940       -3.76180
H          0.26040       -0.54750       -5.72340
