22
gdb 6235	2.42827	1.86246	1.84541	1.2984	77.53	-0.2499	0.0714	0.3213	947.6459	0.197911	-350.207968	-350.198614	-350.19767	-350.240621	36.695
C         -0.55830        1.46260        0.12610
C         -0.01580        0.03870        0.02430
C         -1.10820       -0.89800       -0.50590
C          1.32130       -0.15180       -0.75910
C          1.80860       -1.13420        0.33750
C          0.70770       -0.57070        1.28500
C          1.25670        0.44830        2.28080
O         -0.10750       -1.51640        1.95690
H          0.20110        2.17500        0.46130
H         -0.91700        1.80200       -0.85250
H         -1.40400        1.51770        0.82130
H         -1.44950       -0.54970       -1.48740
H         -0.75290       -1.92570       -0.61460
H         -1.96780       -0.92100        0.16970
H          1.23520       -0.54440       -1.77540
H          1.91740        0.76510       -0.79230
H          1.60490       -2.17700        0.08410
H          2.84650       -1.04670        0.67130
H          1.89400        1.19500        1.79800
H          0.44590        0.96660        2.80080
H          1.87330       -0.06350        3.03130
H          0.37520       -1.83490        2.72690
