20
gdb 16371	2.29835	2.28239	1.48225	1.5737	74.97	-0.2382	0.0849	0.3231	960.3525	0.175816	-348.983616	-348.975142	-348.974198	-349.016314	32.139
C         -0.33570        1.26820       -1.24270
C          0.23680       -0.07840       -0.84690
O          1.62360       -0.23080       -1.24500
C          2.03840       -0.59670        0.09630
C          3.18610        0.25510        0.60120
C          0.62260       -0.33110        0.61190
C          0.20470        0.43500        1.83090
C         -0.14220       -1.03110        1.68810
H          0.24470        2.08340       -0.80160
H         -0.31720        1.37870       -2.33160
H         -1.37670        1.35840       -0.91200
H         -0.37310       -0.88850       -1.27540
H          2.31460       -1.66160        0.13180
H          2.91630        1.31490        0.59710
H          3.46260       -0.03370        1.62160
H          4.06450        0.11830       -0.03750
H          0.96930        0.71320        2.54930
H         -0.59410        1.16290        1.73070
H         -1.17690       -1.29560        1.49150
H          0.38770       -1.74570        2.31070
