18
gdb 12938	2.57523	2.0759	1.65231	3.1616	72.79	-0.2346	-0.0056	0.229	899.6913	0.152624	-347.806752	-347.798561	-347.797617	-347.839062	30.572
C         -0.01590        1.56090        0.04830
C          0.11240        0.05030        0.06500
C          1.35100       -0.72950       -0.22750
C          2.59830       -0.00870        0.30010
C          1.95920       -0.10810        1.70970
O          2.39510        0.06130        2.81520
C          0.71220       -0.77410        1.20330
C         -0.05420       -1.83010        1.94850
H          0.87020        2.06410        0.44210
H         -0.18040        1.92250       -0.97280
H         -0.86970        1.87890        0.65540
H         -0.78130       -0.44820       -0.30980
H          1.37130       -1.54510       -0.93960
H          3.50530       -0.61980        0.26810
H          2.82600        0.98210       -0.10220
H         -0.65700       -1.38430        2.74720
H         -0.73340       -2.36990        1.28120
H          0.62060       -2.55670        2.41250
