14
gdb 12160	3.66312	1.55242	1.19756	1.2495	66.4	-0.2501	0.0086	0.2587	975.5019	0.106521	-378.671349	-378.663445	-378.662501	-378.703754	28.732
N         -0.01110        1.30230        0.27630
C          0.06980       -0.08640       -0.09460
C         -1.27400       -0.86180       -0.29520
O         -0.80560       -1.29970       -1.62240
C          0.32950       -0.51920       -1.53530
N          1.20490       -0.24530       -2.38880
C         -1.58780       -1.95590        0.59420
C         -1.83810       -2.85300        1.35340
H          0.90710        1.65370        0.52470
H         -0.33550        1.86530       -0.50430
H          0.72040       -0.61430        0.60600
H         -2.12580       -0.18500       -0.41560
H          1.01930       -0.70200       -3.28360
H         -2.06480       -3.64840        2.02020
