14
gdb 11683	5.02506	1.44425	1.30989	2.7576	70.7	-0.2478	-0.0228	0.225	923.5125	0.10581	-345.362115	-345.355032	-345.354088	-345.393339	27.187
O          0.03760        0.04840       -0.13150
C          0.02830        1.23490        0.02720
C         -1.12100        2.26720        0.16950
C         -0.05640        3.37450       -0.00120
C          0.94190        3.25190        1.10630
C          1.08590        2.29380       -0.06200
C         -0.20110        4.52770       -0.81940
C         -0.34600        5.50140       -1.51130
H         -1.80490        2.18420       -0.67890
H         -1.69400        2.28150        1.10070
H          1.70660        4.01990        1.14130
H          0.62300        2.88670        2.07880
H          1.98360        2.27160       -0.66690
H         -0.46960        6.36110       -2.12210
