13
gdb 3728	7.10211	1.88973	1.64198	3.7874	54.89	-0.2997	-0.0414	0.2583	749.9674	0.10222	-340.604189	-340.597835	-340.596891	-340.635149	22.183
C          0.07560        1.44980       -0.36520
C         -0.06160        0.07580        0.31190
C         -1.42190       -0.52350        0.13830
N         -2.26000       -0.67030        1.13140
O         -3.38970       -1.22860        0.59940
N         -3.25640       -1.43490       -0.74320
C         -2.06180       -1.00910       -1.04180
H          1.08450        1.84590       -0.22080
H         -0.10930        1.38600       -1.44220
H         -0.63680        2.16470        0.05620
H          0.68580       -0.61300       -0.09890
H          0.13710        0.16160        1.38360
H         -1.69350       -1.05870       -2.05500
