12
gdb 11219	5.38739	1.38559	1.16665	2.1764	51.96	-0.2752	-0.0595	0.2157	940.3735	0.082436	-455.646208	-455.639106	-455.638162	-455.678848	23.959
O         -0.72770        0.71860        0.53790
C          0.08380        0.96420       -0.30830
C          1.34330        1.79810       -0.05190
O          2.46740        0.98330       -0.31590
C          3.38480        1.73680       -1.08630
C          2.57760        2.91130       -1.61900
O          2.87380        3.73810       -2.42170
O          1.36840        2.87470       -0.97800
H          0.01040        0.60100       -1.35560
H          1.34490        2.19040        0.97370
H          4.22380        2.10800       -0.48150
H          3.77910        1.12840       -1.90400
