13
gdb 21484	5.07996	1.73507	1.29395	8.2732	66.84	-0.2219	-0.045	0.177	865.8633	0.098227	-390.989717	-390.982503	-390.981559	-391.021238	26.036
N         -0.06500        1.31120       -0.05220
C         -0.01530       -0.02360       -0.00080
N          1.14430       -0.68590        0.03870
H          1.07130       -1.69380        0.01580
H          2.03600       -0.24190       -0.09290
C         -1.22350       -0.76010        0.00910
N         -1.27360       -2.11650       -0.00680
C         -2.59250       -2.29630        0.01370
N         -3.31950       -1.14340        0.03950
N         -2.43070       -0.15440        0.03790
H          0.74120        1.89320        0.09120
H         -0.99180        1.71410       -0.01360
H         -3.06590       -3.26850        0.01060
