15
gdb 13646	5.66975	0.91763	0.83396	2.0387	85.69	-0.2352	-0.0176	0.2176	1342.1797	0.117249	-325.447602	-325.439261	-325.438317	-325.480604	30.363
C         -0.13590        1.49210       -0.15870
C         -0.01510        0.00160        0.02630
N          1.30940       -0.58860       -0.17380
C          0.71390       -0.61200        1.18900
C          1.34830        0.17220        2.20580
C          1.85590        0.81800        3.09600
C          2.42940        1.54750        4.08990
C          2.93760        2.19530        4.97360
H          0.74450        2.00170        0.23830
H         -0.22520        1.73770       -1.22200
H         -1.02280        1.87560        0.35610
H         -0.87210       -0.57700       -0.31750
H          1.23550       -1.51700       -0.58230
H          0.32430       -1.56540        1.54120
H          3.38680        2.76530        5.74850
