16
gdb 18140	3.43753	1.89485	1.5291	3.6264	68.91	-0.2498	0.0235	0.2733	857.6118	0.131199	-342.747309	-342.740017	-342.739072	-342.778758	27.325
C         -0.18460        1.46350       -0.19200
N          0.08600        0.05070        0.03230
C          1.36730       -0.57660       -0.15490
C          2.54710        0.29130        0.32780
C          1.90470        0.31410        1.75950
C          1.65670        1.58640        2.42230
N          1.46460        2.59640        2.95240
C          0.70050       -0.50290        1.20250
H          0.62320        2.14840        0.09370
H         -0.39680        1.60560       -1.25580
H         -1.07650        1.74180        0.37570
H          1.44790       -1.41300       -0.84030
H          3.50220       -0.23560        0.32630
H          2.67490        1.25740       -0.16480
H          2.48870       -0.31470        2.43660
H          0.16920       -1.25090        1.78070
