13
gdb 20999	7.04793	1.30121	1.10608	5.3067	68.17	-0.259	-0.019	0.24	1001.9556	0.097678	-357.683842	-357.676739	-357.675795	-357.716136	24.646
C         -0.00330        1.42450        0.06630
N          0.03270       -0.02230       -0.01980
C         -0.10330       -0.78950       -1.11790
C          0.00300       -2.10930       -0.69720
C          0.20610       -2.01170        0.70320
N          0.22260       -0.75000        1.10350
C         -0.07510       -3.27480       -1.49390
N         -0.13800       -4.23450       -2.13960
H          0.94250        1.79710        0.46630
H         -0.16400        1.83420       -0.93160
H         -0.81630        1.73790        0.72520
H         -0.26190       -0.37210       -2.09890
H          0.33740       -2.81570        1.41110
