12
gdb 23655	4.06891	1.95087	1.32943	1.7946	57.07	-0.2838	-0.0597	0.2241	837.1656	0.084638	-418.874186	-418.867593	-418.866649	-418.906518	22.857
C         -0.01230        1.48240        0.01010
C          0.00360       -0.01500       -0.00700
N         -0.10740       -0.64260       -1.18520
C         -0.08450       -1.97220       -1.11390
N          0.03570       -2.70080       -0.00430
C          0.13640       -1.95630        1.08490
F          0.25800       -2.60980        2.21750
N          0.12960       -0.64220        1.17260
H          0.91190        1.85870        0.45960
H         -0.11930        1.87410       -1.00080
H         -0.83600        1.83810        0.63680
H         -0.17210       -2.51990       -2.04920
