16
gdb 18884	3.40332	2.78059	2.51841	0.5932	61.69	-0.2429	0.0803	0.3232	656.4545	0.134586	-383.738317	-383.733198	-383.732254	-383.767221	22.136
C          0.00970        1.59460       -0.01280
C          1.52260        1.87870        0.00790
O          2.04610        1.68830        1.34380
C          2.13620        0.26430        1.10140
C          0.76790       -0.40030        1.33830
C          0.04070        0.04770        0.04690
O          1.01830       -0.26580       -0.96450
C          2.08370        0.49170       -0.44410
H         -0.49860        2.07020        0.82840
H         -0.44760        1.92130       -0.95140
H          1.84820        2.81770       -0.44150
H          2.99270       -0.19360        1.59800
H          0.84940       -1.49100        1.35990
H          0.30650       -0.04820        2.26330
H         -0.89430       -0.46230       -0.18130
H          2.97850        0.41750       -1.05580
