15
gdb 9216	7.29552	0.86643	0.82442	4.0774	60.41	-0.2575	-0.0306	0.2269	1350.8886	0.116279	-436.981481	-436.97226	-436.971316	-437.017374	29.862
C         -0.07560        1.31420        0.16150
N          0.49970       -0.00880        0.03620
C          0.62690       -0.63690       -1.15620
O          0.28930       -0.20540       -2.23550
O          1.20770       -1.86350       -0.95800
C          1.41920       -2.65410       -2.12270
C          0.59440       -3.92510       -2.04000
O          0.84200       -4.92000       -2.66650
H          0.64640        2.02540        0.57770
H         -0.36180        1.64530       -0.83710
H         -0.96540        1.30290        0.80050
H          0.83820       -0.49430        0.84990
H          1.11540       -2.08620       -3.01000
H          2.48120       -2.90340       -2.20040
H         -0.27810       -3.85180       -1.35160
