18
gdb 14274	2.86855	2.6736	1.85421	0.4518	66.91	-0.2398	0.0754	0.3153	779.5799	0.156436	-384.91429	-384.907952	-384.907008	-384.944292	26.301
C         -0.04350        1.47510       -0.09480
C          1.50650        1.55720        0.00320
C          1.46950        0.15810        0.68780
C          0.08070       -0.07320        0.02710
O          0.09300       -0.75130       -1.21690
C          1.22920       -0.56820       -2.04580
C          1.61740        0.88630       -2.32030
O          2.20380        1.57840       -1.23010
H         -0.50330        1.90370        0.80010
H         -0.54420        1.87880       -0.97640
H          1.93090        2.37960        0.58330
H          2.28390       -0.53610        0.47420
H          1.36240        0.25430        1.77200
H         -0.68010       -0.58420        0.62130
H          2.10240       -1.10400       -1.64540
H          0.96370       -1.03730       -2.99930
H          2.38100        0.89420       -3.10560
H          0.74010        1.42590       -2.70650
