15
gdb 15324	3.13519	1.34531	1.01244	3.7779	75.17	-0.2478	0.0173	0.2651	1153.3287	0.117782	-325.507269	-325.498698	-325.497754	-325.542065	29.362
C          0.05370        1.49760        0.02700
C          0.05980        0.04320        0.06180
C          0.05400       -1.16070        0.09020
C          0.04250       -2.59270        0.11330
C         -0.54470       -3.34360        1.28420
C         -1.27830       -3.36880       -0.04010
C         -2.51610       -2.65900       -0.18990
N         -3.52010       -2.09950       -0.31950
H          0.65120        1.87550       -0.80970
H         -0.96550        1.88040       -0.09260
H          0.46470        1.92230        0.94940
H          0.88020       -3.07470       -0.38280
H         -0.06420       -4.26260        1.59870
H         -0.98260       -2.75190        2.07810
H         -1.22170       -4.28440       -0.61880
