17
gdb 15813	6.19322	1.02048	0.94456	2.3055	66.87	-0.2569	0.003	0.2599	1257.5501	0.141927	-401.011658	-401.003167	-401.002223	-401.045526	29.566
C         -0.00380        1.47690        0.37780
C          0.00560        0.01220       -0.01300
O         -1.35920       -0.45820        0.02520
C         -1.54600       -1.74360       -0.30860
O         -0.65900       -2.50620       -0.62000
C         -2.98680       -2.12290       -0.24380
C         -3.50390       -2.94940       -1.37840
N         -3.28700       -3.55210       -0.06900
H          1.01680        1.87040        0.36190
H         -0.61030        2.06310       -0.31820
H         -0.40910        1.61020        1.38470
H          0.40360       -0.14350       -1.02040
H          0.60470       -0.59380        0.67360
H         -3.64310       -1.42810        0.26740
H         -4.54240       -2.83440       -1.67430
H         -2.80600       -3.17670       -2.17890
H         -2.39550       -4.04780       -0.08390
