17
gdb 7430	3.29648	1.62171	1.17541	2.4082	67.61	-0.2349	-0.0496	0.1853	1041.1601	0.139132	-401.042072	-401.032283	-401.031339	-401.077598	32.615
C          0.30310        1.24070        0.16480
N          0.08680       -0.17730       -0.08610
C          0.28650       -1.04820        1.06190
C         -0.27390       -0.56400       -1.33910
O         -0.38780        0.20690       -2.28390
C         -0.61980       -2.04730       -1.61180
C         -0.25890       -2.51500       -3.00100
O         -1.21330       -2.73200       -0.81050
H          1.32440        1.41170        0.52540
H          0.14460        1.78670       -0.76320
H         -0.39560        1.60260        0.92900
H         -0.47770       -0.86050        1.82650
H          0.23050       -2.09390        0.77820
H          1.26810       -0.84240        1.50600
H         -0.70220       -1.84340       -3.73970
H          0.82660       -2.45780       -3.14290
H         -0.60180       -3.54010       -3.14300
