13
gdb 3649	6.64978	2.96368	2.10499	2.9336	60.06	-0.235	0.0333	0.2683	597.8768	0.105219	-303.481839	-303.476542	-303.475597	-303.51102	19.699
C         -0.04190        1.52560        0.02840
C          1.53740        1.41750       -0.03160
C          1.33170       -0.02080        0.43270
C          1.59830       -1.31950        0.82550
C          0.29410       -1.83680        1.06580
N         -0.69630       -0.95250        0.84650
N         -0.00020        0.12410        0.46630
H         -0.44200        2.21430        0.77680
H         -0.54380        1.67810       -0.93030
H          1.96030        1.54090       -1.03110
H          2.06150        2.07450        0.66590
H          2.53890       -1.83290        0.93100
H          0.03990       -2.83440        1.39470
