20
gdb 11964	2.72653	1.95855	1.71302	1.7049	74.4	-0.2535	0.0821	0.3356	911.535	0.175478	-348.982988	-348.974546	-348.973602	-349.015328	32.46
C         -0.40070        1.51650        0.09060
C         -0.00200        0.04570        0.02450
C         -1.19000       -0.83590       -0.37300
C          1.29180       -0.28640       -0.79770
C          1.82230       -1.15850        0.37940
C          0.73490       -0.53450        1.25260
C          0.84570        0.01160        2.60620
O          0.09660       -1.18370        2.33810
H          0.44270        2.14740        0.38950
H         -0.75290        1.86790       -0.88610
H         -1.21360        1.67580        0.80860
H         -1.59410       -0.52250       -1.34190
H         -0.90220       -1.88900       -0.45170
H         -1.98870       -0.76920        0.37230
H          1.13430       -0.79760       -1.75000
H          1.90890        0.59860       -0.97260
H          1.65550       -2.22840        0.22710
H          2.85920       -1.00790        0.68870
H          1.76550       -0.13240        3.17290
H          0.25210        0.87600        2.90120
