17
gdb 20883	6.69384	1.0989	1.02234	4.6062	70.26	-0.2544	0.0038	0.2582	1172.9855	0.143642	-360.050095	-360.04231	-360.041366	-360.083486	27.532
C          0.03730        1.54960       -0.03570
C          0.24830        0.03460       -0.08080
C          0.55190       -0.54120        1.30680
N          0.73240       -1.98500        1.29290
C          1.83530       -2.71080        0.99140
C          1.41490       -4.01640        1.07510
N          0.09750       -4.02700        1.41540
N         -0.31470       -2.79720        1.54420
H          0.92610        2.06640        0.34310
H         -0.17600        1.94380       -1.03310
H         -0.80360        1.81470        0.61400
H         -0.64390       -0.46430       -0.47410
H          1.07260       -0.21130       -0.76090
H          1.45580       -0.08820        1.72710
H         -0.27460       -0.34370        1.99390
H          2.78320       -2.25480        0.76010
H          1.97040       -4.92730        0.92230
