10
gdb 21970	5.6254	1.7395	1.32865	2.8899	53.78	-0.2935	-0.1027	0.1908	805.5885	0.061363	-450.531303	-450.525428	-450.524484	-450.561932	20.427
O         -0.04020        0.01470        0.00450
N         -0.03230        1.24160        0.00800
O          0.95210        1.96530        0.00320
C         -1.32090        1.86270        0.01900
C         -2.58000        1.35360        0.02690
N         -3.46860        2.41040        0.03610
C         -2.71200        3.46540        0.03350
O         -1.38610        3.21660        0.02310
H         -2.88830        0.32190        0.02640
H         -3.00800        4.50270        0.03830
