13
gdb 799	4.76954	2.01437	1.42869	3.3526	54.53	-0.2537	-0.0387	0.215	792.723	0.100061	-377.773452	-377.765448	-377.764504	-377.805944	27.696
C          0.08870        1.51520       -0.00560
C          0.09120        0.01830        0.00990
N          0.12610       -0.71500        1.05810
O          0.16290        0.03680        2.22670
C          0.04920       -0.71410       -1.31390
N          0.05390       -2.06750       -1.22710
O          0.01430       -0.10090       -2.36630
H          0.98310        1.90110        0.49400
H          0.05520        1.86710       -1.03560
H         -0.77270        1.89880        0.55040
H          0.18620       -0.63820        2.91460
H          0.08340       -2.51760       -0.32850
H          0.02690       -2.60530       -2.07580
