14
gdb 14314	5.75157	1.73265	1.41847	4.1849	68.6	-0.2281	-0.0321	0.196	837.3234	0.108961	-378.685733	-378.67947	-378.678526	-378.716124	24.271
N         -0.09610        1.28770        0.09900
C         -0.04970        0.03440       -0.05190
O          1.14400       -0.67960       -0.27040
C          0.77970       -2.01700       -0.53580
C          0.91000       -3.29070        0.39100
N         -0.59190       -3.46400        0.31530
C         -0.65280       -2.12420       -0.19790
C         -1.17190       -0.92370        0.07290
H          0.83960        1.69230        0.05210
H          1.06010       -2.27960       -1.56270
H          1.50420       -4.11750       -0.00510
H          1.20200       -3.05800        1.41680
H         -0.89740       -4.20360       -0.30880
H         -2.12670       -0.63570        0.48350
