15
gdb 12177	3.79113	1.4985	1.13509	2.5167	64.19	-0.2576	-0.0453	0.2123	1005.2025	0.117157	-399.825444	-399.81741	-399.816466	-399.858475	27.977
C         -0.30580        1.47960        0.09050
C          0.03790       -0.00000       -0.02550
N          0.89680       -0.40420       -1.16220
C          1.98970       -0.96440       -0.35520
C          1.18530       -0.51640        0.88060
O          1.36860       -0.52350        2.05760
C          0.57440       -0.74720       -2.43550
O          1.29950       -1.37370       -3.17790
H          0.59160        2.09780       -0.00030
H         -1.01230        1.77950       -0.68880
H         -0.76590        1.67220        1.06420
H         -0.86560       -0.61860        0.06710
H          2.11400       -2.04840       -0.46230
H          2.96280       -0.48000       -0.48800
H         -0.42600       -0.37070       -2.72940
