18
gdb 8141	4.08304	1.62392	1.36261	1.3185	73.74	-0.219	0.0252	0.2442	960.3969	0.153469	-347.805201	-347.797484	-347.79654	-347.83663	30.278
C          0.04400        1.50810        0.07940
C         -0.01770        0.01580       -0.00380
C         -0.08450       -0.73760       -1.10650
C         -0.05610       -2.20050       -0.79590
O         -0.88390       -3.07520       -1.50310
C          1.21750       -2.70710       -0.15400
C          0.04500       -2.27890        0.71040
C          0.01840       -0.85180        1.24660
H          0.98140        1.84580        0.53980
H         -0.03180        1.97080       -0.90840
H         -0.76730        1.90280        0.70490
H         -0.12630       -0.36110       -2.12340
H         -0.41440       -3.35200       -2.29690
H          1.39250       -3.77760       -0.20280
H          2.10900       -2.08860       -0.19740
H         -0.48400       -3.06150        1.24010
H          0.89440       -0.62420        1.86930
H         -0.86150       -0.66750        1.87840
