16
gdb 17093	4.82961	1.64292	1.57691	3.579	68.29	-0.2476	0.0286	0.2762	841.672	0.134143	-342.763211	-342.756991	-342.756047	-342.793562	24.56
N         -0.06110       -1.14450       -0.11410
C         -0.01650        0.01020       -0.06270
C          0.04400        1.46240        0.02140
C         -0.39410        2.05460        1.43130
N          0.81500        2.79670        1.86110
C          1.19660        3.46740        0.55490
C          1.48200        2.03850        0.03260
C          1.89110        1.78650        1.50490
H         -0.55060        1.88100       -0.79570
H         -1.24500        2.73210        1.33810
H         -0.63820        1.27200        2.15100
H          0.40560        4.06180        0.08770
H          2.09520        4.07180        0.69070
H          2.11440        1.81300       -0.82640
H          2.87560        2.18270        1.75930
H          1.75770        0.78970        1.93310
