14
gdb 20289	4.28266	3.15494	2.89242	0.1204	60.62	-0.2128	0.0476	0.2604	567.921	0.110887	-341.489485	-341.485028	-341.484084	-341.517694	19.627
C         -0.03050        1.47270       -0.03580
C         -0.31880        1.90010       -1.45680
C          0.79470        1.45820       -2.32380
C          1.46680        0.40220       -1.43550
C          0.13350       -0.36760       -1.45670
C         -0.02300       -0.00470        0.02650
N          1.28010        0.76610        0.03760
N         -0.51950        0.70640       -2.32690
H         -0.28300        2.09420        0.81420
H         -0.93290        2.76230       -1.68480
H          1.18090        1.97090       -3.19780
H          2.44230       -0.01410       -1.67140
H         -0.00650       -1.38180       -1.82050
H         -0.34820       -0.62200        0.85660
