15
gdb 903	7.22374	2.01491	1.60711	3.5741	63.83	-0.2122	0.0367	0.249	777.9635	0.12626	-304.743934	-304.736809	-304.735865	-304.775338	24.914
C         -0.05390        1.46530       -0.00130
N          0.01060        0.01960        0.02060
C          0.09920       -0.81280       -1.05460
N          0.13830       -2.07790       -0.70670
C          0.07170       -2.08250        0.67140
C          0.09010       -3.35570        1.45360
C         -0.00790       -0.79340        1.13600
H          0.79070        1.90460        0.53900
H         -0.01750        1.80630       -1.03790
H         -0.98430        1.82420        0.45020
H          0.13120       -0.42900       -2.06460
H          1.00700       -3.92340        1.26130
H          0.02930       -3.15920        2.52760
H         -0.75020       -4.00120        1.17590
H         -0.07400       -0.38400        2.13110
