14
gdb 20763	4.93586	1.43304	1.12803	1.1911	59.46	-0.2788	-0.0243	0.2546	1008.0084	0.106702	-415.865949	-415.858164	-415.85722	-415.898756	26.775
C         -0.21770        1.37790        0.05140
C          0.06880       -0.08260        0.01950
N          0.76770       -0.64060       -0.93270
O          0.78640       -2.00380       -0.57170
C          0.09260       -2.09750        0.56050
C         -0.05970       -3.41880        1.24740
O         -1.00960       -3.35250        2.27850
N         -0.37760       -0.96560        0.98540
H          0.17930        1.82140        0.96940
H          0.23280        1.87120       -0.81070
H         -1.29790        1.55100        0.04310
H         -0.37000       -4.17530        0.51580
H          0.93170       -3.72760        1.62000
H         -1.10170       -2.42240        2.52310
