18
gdb 10485	2.71158	1.72273	1.27065	4.6978	71.52	-0.2591	0.033	0.2921	1010.2451	0.153641	-343.978285	-343.96962	-343.968675	-344.012116	31.267
C         -0.69410        0.61090       -0.56540
C         -0.35860       -0.69510        0.16980
C          0.82120       -0.62420        1.13120
C          0.61730        0.12630        2.45000
C          0.43630        1.57300        2.31690
N          0.29330        2.71670        2.23260
C          1.76460       -1.77490        1.16540
N          2.18010       -0.48300        0.59100
H          0.17440        0.99400       -1.11110
H         -1.49360        0.43610       -1.29160
H         -1.02440        1.39690        0.11620
H         -1.24210       -1.04620        0.71900
H         -0.13680       -1.47350       -0.57070
H         -0.24970       -0.28410        2.98140
H          1.49260       -0.03590        3.08620
H          2.27000       -2.04820        2.08820
H          1.56760       -2.60940        0.49770
H          2.16050       -0.52520       -0.42500
