17
gdb 19721	3.45703	2.5353	2.48572	0.6558	66.03	-0.2249	0.0956	0.3205	686.6387	0.146204	-363.826033	-363.82059	-363.819645	-363.855147	23.605
C          0.05690        1.48130       -0.10450
C          1.30160        0.68920       -0.01290
C          1.86940        0.39380        1.38250
C          1.37970       -1.05760        1.55130
C         -0.08650       -0.60250        1.36920
C         -0.15380        0.43960        2.48470
O          1.12520        1.10380        2.38650
N         -0.02910        0.00960       -0.00150
H         -0.20010        2.11610        0.73470
H         -0.26110        1.85930       -1.07240
H          1.94000        0.52650       -0.87920
H          2.92900        0.60680        1.52050
H          1.71030       -1.72530        0.75370
H          1.60250       -1.48810        2.53080
H         -0.85950       -1.36980        1.40970
H         -0.96270        1.16720        2.36040
H         -0.26290       -0.02790        3.47290
