16
gdb 12711	2.93203	2.27359	1.71749	4.1391	63.98	-0.2664	0.0123	0.2787	816.2332	0.130725	-383.759731	-383.752562	-383.751618	-383.791014	26.926
C         -0.10260        1.53300        0.06330
C          0.02480        0.02890        0.03200
C         -1.25090       -0.86890        0.20610
C         -0.50320       -1.73400        1.26700
C          0.76640       -0.89260        1.04440
O          1.58840       -1.42790       -0.04270
C          0.99000       -0.60320       -0.97070
O          1.24000       -0.51530       -2.13010
H          0.87610        2.01860        0.12990
H         -0.58820        1.88780       -0.85180
H         -0.70740        1.85970        0.91520
H         -2.09000       -0.30620        0.62110
H         -1.59030       -1.37970       -0.69680
H         -0.91430       -1.62740        2.27350
H         -0.38090       -2.79540        1.04450
H          1.38640       -0.56140        1.87660
