13
gdb 19609	3.3634	2.43306	1.81754	3.2315	57.54	-0.2504	-0.0162	0.2342	721.1426	0.095894	-398.546558	-398.540316	-398.539372	-398.576875	23.821
O         -0.04240        1.49210       -0.15130
C         -0.02000        0.09360       -0.10530
C         -1.36110       -0.61220       -0.16130
C         -1.80270       -0.75020       -1.58670
N         -0.81720       -1.74320       -0.96550
C          0.29620       -0.71780       -1.38780
C         -0.69700       -0.19510       -2.42910
O         -0.60860        0.23640       -3.53990
H          0.84930        1.82710       -0.01280
H          0.55970       -0.28950        0.74440
H         -2.06240       -0.77930        0.64850
H         -2.81160       -1.03270       -1.85780
H          1.29240       -1.05980       -1.65580
