19
gdb 1694	4.59414	1.55391	1.46149	2.3042	63.83	-0.2568	0.0624	0.3192	943.7099	0.169663	-348.062001	-348.053042	-348.052098	-348.094808	32.662
C          0.00950        1.62590        0.07620
C         -0.00700        0.09630        0.08820
C         -1.42270       -0.48220       -0.04930
O         -2.06970       -0.01870       -1.22780
C         -1.42610       -2.02140       -0.03360
C         -2.83590       -2.59860        0.05420
O         -0.78180       -2.40310       -1.25560
H          1.03200        2.01210        0.12720
H         -0.45890        2.00500       -0.83570
H         -0.54490        2.03510        0.92870
H          0.60860       -0.29820       -0.72890
H          0.43560       -0.27970        1.02020
H         -2.03720       -0.12710        0.78830
H         -1.68650       -0.54040       -1.94560
H         -0.82950       -2.36870        0.82470
H         -3.46050       -2.18510       -0.74160
H         -2.81980       -3.69140       -0.03500
H         -3.29450       -2.35480        1.01790
H         -0.96620       -3.33240       -1.41930
