14
gdb 19778	3.30481	2.57137	1.76086	3.187	60.34	-0.2417	-0.0379	0.2039	735.1011	0.108402	-382.523327	-382.5174	-382.516456	-382.553254	23.527
O          0.01550        0.00610       -0.03980
C         -0.01500        1.21020        0.00430
C         -1.25420        2.06930       -0.00090
C         -1.43400        3.17790        1.02660
C         -0.81880        3.49560       -0.30240
C          0.70580        3.48580       -0.34040
O          1.30880        3.11390        0.89970
C          1.20460        2.11530       -0.13380
H         -2.14250        1.61920       -0.42620
H         -2.45960        3.48990        1.18900
H         -0.79790        3.19250        1.90120
H         -1.34450        4.10840       -1.02370
H          1.24480        4.22690       -0.92260
H          2.13870        1.70690       -0.50720
