20
gdb 6706	6.05233	0.77404	0.71692	1.1418	78.46	-0.2536	0.0557	0.3093	1597.2075	0.173475	-348.973118	-348.96303	-348.962086	-349.00881	35.671
C         -0.15950        1.54460        0.15530
C         -0.00710        0.03520        0.00360
C          0.80310       -0.58020        1.14860
O         -1.32820       -0.49550       -0.06040
C         -1.43070       -1.80840       -0.55930
C         -2.92330       -2.10390       -0.75430
C         -3.15940       -3.44900       -1.26000
C         -3.32370       -4.56380       -1.67810
H          0.81930        2.03290        0.17040
H         -0.74320        1.95440       -0.67310
H         -0.67860        1.78090        1.08960
H          0.50440       -0.18070       -0.95030
H          0.30540       -0.39420        2.10600
H          0.92370       -1.66040        1.02810
H          1.80370       -0.13820        1.18750
H         -0.90060       -1.90660       -1.52010
H         -0.99900       -2.54770        0.13120
H         -3.43410       -1.96290        0.20560
H         -3.34110       -1.35830       -1.44100
H         -3.48390       -5.54620       -2.04720
