24
gdb 13277	6.37542	0.74291	0.69941	0.0798	86.4	-0.2818	0.0892	0.371	1717.8541	0.223724	-314.273144	-314.263639	-314.262695	-314.308025	34.874
C          0.03040        1.58210        0.08700
C         -0.06010        0.05740       -0.01930
C          0.71890       -0.51320       -1.20930
C          0.63120       -2.03970       -1.32440
C          1.41350       -2.60850       -2.50040
C          2.97070       -2.57120       -2.47410
C          2.97850       -3.97990       -3.12600
C          1.50260       -4.15150       -2.67650
H          1.06950        1.90980        0.20400
H         -0.36730        2.06590       -0.81220
H         -0.53550        1.95890        0.94490
H          0.31280       -0.39750        0.90820
H         -1.11340       -0.24290       -0.09980
H          0.34670       -0.05760       -2.13800
H          1.77310       -0.21370       -1.12890
H          0.99920       -2.49720       -0.39460
H         -0.42350       -2.33780       -1.41220
H          1.05520       -2.15470       -3.43340
H          3.47680       -1.75890       -3.00190
H          3.34730       -2.60270       -1.44550
H          3.06600       -3.92140       -4.21490
H          3.70930       -4.70530       -2.76050
H          1.43340       -4.66270       -1.71020
H          0.80500       -4.62870       -3.36990
