18
gdb 14942	4.45875	1.37179	1.12567	3.0734	74.57	-0.2425	-0.0241	0.2184	1057.7438	0.154962	-347.833398	-347.825825	-347.824881	-347.865917	28.233
O         -0.15670        0.00530        0.04810
C         -0.02330        1.20100        0.04080
C          1.30730        1.93710        0.03130
C          1.41270        2.77860       -1.25920
C          2.50260        3.85010       -1.14330
C          2.19990        4.81690        0.00910
C          1.77660        4.08320        1.25410
C          1.40620        2.80300        1.26950
H         -0.90840        1.88110        0.03900
H          2.08630        1.16420        0.05010
H          1.60120        2.11870       -2.11190
H          0.44730        3.26960       -1.44680
H          3.46890        3.36320       -0.96270
H          2.59490        4.39820       -2.08660
H          3.07890        5.43550        0.22840
H          1.41140        5.52580       -0.28510
H          1.80250        4.63950        2.18840
H          1.15050        2.32600        2.21300
