12
gdb 3960	7.52407	1.94344	1.60367	2.6536	51.59	-0.2619	-0.0093	0.2526	720.1415	0.090699	-360.496984	-360.490747	-360.489803	-360.52764	21.848
O          0.03470        1.36260        0.44090
C          0.00030        0.03570       -0.06210
C         -1.40750       -0.46160        0.05060
N         -1.64810       -1.70940        0.37470
O         -3.03250       -1.84450        0.34960
C         -3.57570       -0.66290        0.02100
C         -2.61010        0.26530       -0.18590
H          0.91890        1.71170        0.29530
H          0.30690        0.00630       -1.12010
H          0.66230       -0.64280        0.49280
H         -4.65370       -0.63880       -0.02130
H         -2.71450        1.30360       -0.44810
