13
gdb 4152	3.60023	1.50057	1.14313	1.374	64.16	-0.26	-0.0117	0.2482	991.4555	0.09295	-398.484737	-398.476969	-398.476025	-398.517148	27.831
O         -0.15540        1.39580        0.08340
N          0.03570        0.01140        0.18940
C         -1.04750       -0.60940        0.02100
C         -2.49910       -0.32760       -0.26040
O         -2.77440       -1.75020       -0.22420
C         -1.38250       -2.09390        0.04980
C         -0.77650       -2.94540       -0.95820
C         -0.27180       -3.65390       -1.78660
H          0.73450        1.73830        0.22250
H         -3.03560        0.22770        0.51870
H         -2.71510        0.11920       -1.23860
H         -1.28520       -2.55000        1.04440
H          0.17460       -4.27840       -2.52090
