15
gdb 18923	3.59131	2.64252	2.06436	2.1479	63.86	-0.2226	-0.0157	0.207	692.2397	0.121524	-362.618679	-362.613141	-362.612197	-362.648111	22.74
O          0.01380        0.09490        0.06170
C         -0.01180        1.29220        0.01590
C         -1.17630        2.28200       -0.04330
C         -0.84620        3.03550        1.26810
N          0.38660        3.55820        0.56670
C         -0.37370        3.44940       -0.75260
C          0.89260        2.90370       -1.42520
C          1.11920        2.32800       -0.00200
H         -2.16020        1.91310       -0.32570
H         -1.50880        3.87810        1.48180
H         -0.67840        2.45350        2.18020
H         -0.93140        4.31770       -1.10540
H          0.81220        2.20280       -2.25900
H          1.59020        3.71060       -1.65750
H          2.09410        2.06640        0.40200
