18
gdb 12795	3.64896	2.02176	1.57415	1.7362	72.42	-0.2357	0.0037	0.2394	867.0639	0.154728	-347.811238	-347.804042	-347.803098	-347.842132	28.533
C         -0.01450        1.51410        0.01940
C         -0.01310        0.00400        0.05680
C         -1.19940       -0.68960       -0.59170
C         -1.08060       -2.22600       -0.58340
C         -0.64550       -2.75800        0.75730
C          0.16190       -2.05940        1.55720
C          0.66280       -0.72290        1.15160
O          1.25870       -0.61200       -0.16720
H          0.86520        1.91390        0.53000
H          0.00040        1.87270       -1.01600
H         -0.91240        1.91730        0.49990
H         -2.10140       -0.38490       -0.04470
H         -1.32140       -0.33160       -1.62080
H         -2.03760       -2.66900       -0.87900
H         -0.35110       -2.53240       -1.34310
H         -0.99100       -3.74450        1.05370
H          0.47720       -2.44660        2.52110
H          1.18990       -0.14420        1.90850
