20
gdb 9777	3.75443	1.45871	1.3818	2.1435	70.35	-0.2526	0.0646	0.3172	1002.2004	0.177772	-386.154689	-386.146264	-386.14532	-386.18756	32.226
O         -0.13180        1.44000        0.11850
C         -0.01560        0.01990        0.04160
C         -1.43440       -0.53470       -0.03580
O         -2.15910       -0.08020        1.10970
C         -2.19050       -0.14440       -1.32670
C         -3.30970       -1.19080       -1.39700
C         -2.58620       -2.50140       -1.02830
C         -1.48320       -2.08160       -0.01900
H          0.70870        1.80380        0.40930
H          0.56470       -0.28480       -0.84230
H          0.47930       -0.38170        0.93770
H         -1.96400        0.86370        1.17570
H         -2.54160        0.88980       -1.29620
H         -1.52330       -0.24540       -2.19310
H         -4.06720       -0.95380       -0.64290
H         -3.80610       -1.23440       -2.37040
H         -3.26190       -3.25610       -0.61760
H         -2.13030       -2.93770       -1.92420
H         -0.51150       -2.50780       -0.28920
H         -1.70720       -2.40130        1.00110
