13
gdb 3095	4.17644	2.00774	1.73458	4.7121	51.54	-0.2388	-0.018	0.2208	735.3824	0.099911	-381.565482	-381.558319	-381.557374	-381.596758	25.567
O          0.04430        1.35880       -0.03450
C         -0.02800       -0.02650       -0.01520
C         -0.41570       -0.68960        1.26430
O         -0.75710        0.17620        2.31730
C         -1.39710       -0.73590        0.10020
C         -2.64990        0.05680        0.11310
O         -3.68190       -0.33170       -0.38000
H         -0.20620        1.65920        0.85100
H          0.70160       -0.48700       -0.67350
H          0.03500       -1.63250        1.56520
H          0.01990        0.27900        2.87820
H         -1.49590       -1.69390       -0.39860
H         -2.58600        1.05030        0.59810
