13
gdb 13478	3.27053	1.94282	1.3192	2.5941	55.73	-0.254	-0.0509	0.2031	871.0273	0.094136	-435.75509	-435.747549	-435.746605	-435.787629	26.732
N          0.00180        1.26390        0.21450
C          0.09130       -0.08630        0.03080
O          1.11770       -0.70280       -0.12730
C         -1.29550       -0.75170       -0.01420
O         -1.29560       -2.16220        0.24580
C         -2.13580       -2.05090        1.41570
C         -2.17830       -0.53380        1.21940
O         -2.62610        0.42060        1.78110
H          0.86540        1.76920        0.34010
H         -0.83870        1.66430        0.60530
H         -1.78090       -0.49600       -0.96650
H         -3.09820       -2.56530        1.30470
H         -1.63920       -2.39030        2.33310
