18
gdb 19481	3.90598	1.70046	1.62283	1.7461	67.09	-0.2443	0.0784	0.3226	886.4823	0.154921	-384.909292	-384.902074	-384.90113	-384.940961	27.393
C         -0.19870        1.36590        0.07190
O          0.29640        0.06300       -0.16100
C          0.78260       -0.56110        0.98660
C         -0.15520       -1.34540        1.95420
C         -0.98840       -2.23220        1.00970
C          0.18920       -2.75270        0.12510
C          1.32600       -1.99380        0.83640
O          1.00300       -2.18410        2.25010
H          0.57710        2.02150        0.49530
H         -0.51660        1.76940       -0.89190
H         -1.05950        1.36250        0.75650
H          1.47770        0.07490        1.54830
H         -0.62310       -0.91150        2.83770
H         -1.49680       -3.02790        1.55730
H         -1.72550       -1.65950        0.44210
H          0.33200       -3.83250        0.19740
H          0.09400       -2.46870       -0.92480
H          2.36140       -2.21590        0.58010
