16
gdb 14445	4.27964	2.05414	1.7714	1.4936	63.1	-0.2395	0.0767	0.3163	765.8083	0.131886	-383.704275	-383.697963	-383.697018	-383.734296	25.658
O         -0.07730        1.38030       -0.04700
C          0.05900        0.00540       -0.04120
C          0.88610       -0.81030       -1.03730
C         -0.10310       -1.99370       -0.76020
O          0.38630       -2.87790        0.23700
C          0.52330       -2.11250        1.43980
C         -0.26360       -0.83130        1.19370
C         -1.06990       -1.00030       -0.07060
H          0.66020        1.76180        0.44210
H          0.76690       -0.41350       -2.04940
H          1.94590       -0.99920       -0.83410
H         -0.43880       -2.58190       -1.61230
H          0.10940       -2.69180        2.27380
H          1.58580       -1.92530        1.64930
H         -0.70630       -0.29200        2.02270
H         -2.14080       -0.89240       -0.16940
