16
gdb 14045	4.94682	1.63254	1.50924	2.6435	66.47	-0.2384	0.0062	0.2445	867.0882	0.131035	-383.716764	-383.709921	-383.708977	-383.748149	25.584
C         -0.05060        1.46810       -0.02310
O          1.36410        1.65900        0.17030
C          1.56870        0.25440        0.41610
C          0.11970       -0.07630       -0.03720
O         -0.67120       -0.79510        0.89200
C         -1.32220       -1.89420        0.25510
C         -0.88160       -1.82550       -1.17920
C         -0.06350       -0.79210       -1.33960
H         -0.64370        1.80960        0.83510
H         -0.41380        1.94540       -0.94060
H          2.39150       -0.15730       -0.17960
H          1.72920        0.03110        1.47880
H         -1.02750       -2.83550        0.74350
H         -2.41270       -1.79730        0.36780
H         -1.20410       -2.52950       -1.93540
H          0.42370       -0.47220       -2.25170
