18
gdb 7464	3.53908	1.24304	1.08455	1.7995	76.9	-0.2413	0.0393	0.2806	1176.9192	0.151876	-347.77033	-347.761184	-347.76024	-347.805549	32.482
C          0.03920        1.48140       -0.02030
C          0.01940        0.02560       -0.01990
C         -0.01000       -1.17940       -0.02330
C          0.00430       -2.63910       -0.03590
O          0.75040       -3.14200       -1.13100
C          0.31300       -3.25430        1.37490
C         -1.21240       -3.43370        1.58990
C         -1.40930       -3.28420        0.05880
H          0.75180        1.87450        0.71320
H          0.32340        1.87290       -1.00330
H         -0.94780        1.88970        0.22360
H          1.51300       -2.56760       -1.25770
H          0.82170       -4.21150        1.23400
H          0.87130       -2.63970        2.08350
H         -1.54680       -4.36630        2.04740
H         -1.64750       -2.59640        2.14070
H         -2.25210       -2.69750       -0.30950
H         -1.38400       -4.24980       -0.45280
