13
gdb 20989	3.49844	2.21693	1.36875	2.9752	55.34	-0.213	0.0444	0.2574	824.9292	0.096555	-431.965155	-431.957552	-431.956608	-431.997223	26.611
C          0.00060        1.46350        0.05670
N          0.02970        0.01690        0.05060
C          0.00280       -0.76610       -1.12550
O         -0.04660       -0.36940       -2.27050
N          0.04670       -2.03770       -0.61910
N          0.09810       -2.09410        0.77260
C          0.08510       -0.84440        1.10670
O          0.12050       -0.36080        2.35270
H          0.90020        1.87300        0.52430
H         -0.04320        1.77550       -0.98840
H         -0.87910        1.83690        0.58810
H          0.04410       -2.88480       -1.15730
H          0.15760       -1.11790        2.95260
