14
gdb 5754	5.67033	2.06524	1.73397	3.9886	67.08	-0.2166	0.0144	0.2309	736.7453	0.110426	-341.547911	-341.542368	-341.541424	-341.577471	22.079
C         -0.09520        1.39080       -0.07760
C          1.28880        0.83420        0.12340
C          0.08440       -0.10710        0.13500
C          0.65580       -0.68900       -1.14430
C          0.61920       -1.20810       -2.41240
N          1.69210       -0.69920       -3.12720
C          2.31090        0.16620       -2.34590
N          1.74820        0.14980       -1.10270
H         -0.49800        1.94250        0.76850
H         -0.38890        1.76630       -1.05260
H          1.97570        1.10710        0.91190
H         -0.33830       -0.63790        0.97550
H         -0.05530       -1.92320       -2.85570
H          3.19080        0.73350       -2.60730
