16
gdb 5579	3.32208	1.94774	1.29037	2.3589	67.45	-0.1794	0.0425	0.2219	930.8444	0.133162	-376.123895	-376.115898	-376.114954	-376.156456	29.193
C          0.17070        0.68790        0.67160
N         -0.37790        0.33980       -0.63450
C          0.35940       -0.54100       -1.43400
C          0.86850       -1.78420       -1.11610
N          0.84960       -2.62510        0.01630
N          1.45540       -2.22660       -2.29710
C          1.26720       -1.27130       -3.23560
N          0.61230       -0.23540       -2.74930
H          0.19700       -0.19610        1.31590
H          1.19010        1.10490        0.62980
H         -0.48510        1.42050        1.14980
H         -0.58820        1.16420       -1.18320
H         -0.08670       -2.72480        0.39360
H          1.45100       -2.29800        0.76580
H          1.90410       -3.12110       -2.40240
H          1.62930       -1.36640       -4.24820
