14
gdb 14221	4.97337	1.82047	1.65916	3.802	61.31	-0.2285	-0.0033	0.2252	790.9312	0.106122	-382.491045	-382.484517	-382.483573	-382.521503	25.227
C         -0.07250        1.41490        0.02590
C          0.02350       -0.07240        0.00230
O         -1.15510       -0.83890       -0.30000
C         -0.43560       -2.00370        0.18850
C          0.60220       -1.08110        0.91930
C          1.23780       -0.86650       -0.50540
C          0.67480       -2.20410       -0.87870
O          1.05270       -3.13140       -1.53340
H          0.87840        1.85380        0.34040
H         -0.31660        1.79700       -0.97000
H         -0.85310        1.73400        0.72250
H         -1.05790       -2.79890        0.58830
H          1.08760       -1.08820        1.88350
H          2.18990       -0.41770       -0.75120
