10
gdb 21874	4.07962	2.05789	1.36789	3.9905	51.6	-0.2688	-0.0814	0.1873	785.6154	0.060624	-450.597637	-450.591532	-450.590588	-450.628242	22.099
O         -0.00970        1.32030        0.00760
C         -0.05230       -0.00380        0.00080
N         -1.17250       -0.61970        0.00420
C         -1.12110       -2.00860       -0.00270
O         -2.09490       -2.72360       -0.00190
C          0.25400       -2.58820       -0.01390
N          1.34910       -1.93150       -0.01670
O          1.19470       -0.52440       -0.00860
H          0.91470        1.60840        0.00410
H          0.36470       -3.66870       -0.02030
