16
gdb 16146	4.11516	1.69874	1.43094	2.6652	65.35	-0.2563	-0.0351	0.2212	888.0358	0.130834	-383.751229	-383.74424	-383.743295	-383.782463	26.393
O         -0.63870        0.77450        0.55570
C          0.33260        0.88000       -0.15120
C          1.39040        1.90530        0.03880
C          1.47390        2.77580        1.27450
C          2.48890        3.87770        0.88600
C          2.37090        4.02690       -0.64980
C          1.94200        2.65110       -1.12270
O          2.66700        1.57210       -0.54660
H          0.51670        0.20790       -1.01810
H          0.47600        3.18140        1.47170
H          1.77710        2.21390        2.16210
H          2.30680        4.81750        1.41150
H          3.49820        3.54830        1.14160
H          1.59120        4.74600       -0.92860
H          3.30370        4.35590       -1.11800
H          1.59420        2.48770       -2.14060
