12
gdb 21678	5.66415	1.63415	1.27028	6.1574	60.44	-0.2415	-0.079	0.1625	869.4695	0.084663	-414.665735	-414.659191	-414.658246	-414.696384	24.704
N          0.04240        1.40180        0.14620
C          0.01180        0.02050        0.03190
N         -1.15220       -0.55020        0.00260
O         -1.17760       -1.94580        0.00790
C         -0.05520       -2.74710       -0.02160
O         -0.20230       -3.94130       -0.04100
C          1.22620       -2.04480       -0.02050
C          1.26320       -0.70560        0.01420
H          0.76660        1.86090       -0.38790
H         -0.86540        1.82910        0.01570
H          2.11320       -2.66590       -0.03770
H          2.19690       -0.15230        0.03890
