15
gdb 21230	7.44668	1.12177	0.9896	1.2516	62.97	-0.2274	-0.024	0.2034	1143.396	0.119903	-395.965985	-395.958489	-395.957544	-395.998654	26.026
C         -0.12870        1.50290       -0.25640
N         -0.01150        0.05350       -0.23520
C         -1.14900       -0.59820        0.38090
C         -1.12160       -2.08190        0.20130
N         -0.30590       -2.69000       -0.61780
O         -0.65790       -4.04230       -0.48840
C         -1.64900       -4.07800        0.40120
N         -1.99360       -2.92250        0.86880
H          0.73460        1.93040       -0.77340
H         -1.04630        1.87750       -0.74610
H         -0.12490        1.88700        0.77050
H          0.12830       -0.31020       -1.17100
H         -1.15520       -0.38750        1.45860
H         -2.13030       -0.24200        0.00600
H         -2.05860       -5.04790        0.64290
