24
gdb 5808	2.91494	1.35131	1.1949	1.0465	82.04	-0.2397	0.0738	0.3135	1201.3106	0.21929	-351.420082	-351.409289	-351.408345	-351.45529	40.227
C          0.23560        1.20720       -0.51740
C          0.12720       -0.13040        0.21710
C          0.46050        0.00340        1.70420
O         -1.21200       -0.61040        0.09240
C         -1.45760       -1.86370       -0.56070
C         -0.78150       -3.02480        0.18810
C         -2.98090       -2.01340       -0.48740
C         -1.00630       -1.82420       -2.03070
H          1.23910        1.63310       -0.41360
H          0.02070        1.08490       -1.58250
H         -0.48630        1.91980       -0.10550
H          0.83180       -0.83840       -0.23790
H          0.40410       -0.96720        2.20460
H          1.46800        0.40810        1.84690
H         -0.25400        0.67670        2.18870
H         -1.10840       -3.04360        1.23190
H         -1.04570       -3.98270       -0.27150
H          0.30980       -2.94430        0.17050
H         -3.46670       -1.17610       -0.99570
H         -3.30510       -2.94570       -0.95930
H         -3.30960       -2.01580        0.55550
H          0.07730       -1.70240       -2.12400
H         -1.27520       -2.75570       -2.53930
H         -1.49210       -0.99530       -2.55380
