17
gdb 18858	3.42215	2.46414	2.06826	1.7543	70.61	-0.2115	0.0021	0.2136	744.0809	0.14448	-326.685872	-326.679634	-326.67869	-326.715802	25.572
C         -0.05970        1.62310       -0.01480
C          0.09710        0.10950       -0.02270
C          0.77560       -0.61920       -1.17190
C          2.27550       -0.74860       -1.04280
C          3.01980        0.14350       -0.11260
C          2.38380        0.14830        1.06040
C          1.12160       -0.65670        0.90560
N          1.39490       -1.63520       -0.24770
H          0.89960        2.13070       -0.14130
H         -0.71770        1.93990       -0.83160
H         -0.50920        1.96990        0.92250
H         -0.87680       -0.36740        0.12620
H          0.28160       -0.91370       -2.09440
H          2.78610       -1.23110       -1.87120
H          3.91270        0.69080       -0.38500
H          2.62650        0.73800        1.93500
H          0.71930       -1.12630        1.80240
