18
gdb 20054	4.76904	1.4162	1.22122	1.7426	72.39	-0.2396	0.0255	0.2651	1010.4677	0.154866	-347.792254	-347.784948	-347.784004	-347.824424	27.476
C          0.09410        1.39350       -0.17330
O          0.97950        0.29830       -0.42230
C         -0.32630        0.01130        0.08330
C         -0.40610       -0.57030        1.47640
C         -1.87700       -0.54800        1.98930
C         -2.33800       -1.97390        1.80360
C         -1.32890       -2.79570        1.52130
C         -0.00370       -2.07550        1.46780
H          0.36920        2.03350        0.66460
H         -0.26110        1.91920       -1.05880
H         -0.98680       -0.46180       -0.64770
H          0.25780        0.01180        2.12110
H         -1.93270       -0.24980        3.04490
H         -2.49180        0.17470        1.43780
H         -3.37420       -2.27050        1.92370
H         -1.41670       -3.86660        1.37410
H          0.59450       -2.32930        0.58500
H          0.61590       -2.33170        2.33780
