16
gdb 19770	3.126	2.87803	2.42631	1.301	62.02	-0.2199	0.0795	0.2994	672.4353	0.133976	-383.723893	-383.718336	-383.717392	-383.75331	23.041
C          0.05170        1.59290       -0.05290
C          1.54760        1.84110        0.07240
C          2.07910        0.56690        0.71350
O          1.00520       -0.31050        0.96660
C          0.02240        0.04940       -0.01460
C          0.49540       -0.51460       -1.35250
O          1.72590        0.09620       -1.74850
C          2.35290        0.84310       -0.73990
H         -0.48980        2.02310        0.79480
H         -0.37970        1.98020       -0.98060
H          1.93100        2.82810        0.30180
H          2.85260        0.51800        1.47000
H         -0.93250       -0.38610        0.28550
H          0.63860       -1.59910       -1.25390
H         -0.24120       -0.32950       -2.14520
H          3.35960        1.10820       -1.04310
