17
gdb 18743	3.02314	2.30524	1.5692	2.376	69.18	-0.2053	-0.0263	0.1791	843.5171	0.141859	-363.8346	-363.827185	-363.82624	-363.866353	27.748
C          0.11810        1.55610       -0.12820
N          0.12930        0.11660        0.02780
C          0.89560       -0.74830       -0.89460
C          1.40410       -1.58550        0.30520
C          2.79820       -1.14190        0.81520
C          2.10910       -0.01230        1.60770
O          2.50750        0.93820        2.21770
C          0.69570       -0.52600        1.22660
H          1.11990        2.01820       -0.13440
H         -0.38280        1.81080       -1.06840
H         -0.45290        2.00550        0.69050
H          0.25720       -1.26670       -1.61910
H          1.70300       -0.24260       -1.44680
H          1.16350       -2.64540        0.32870
H          3.25080       -1.86430        1.50440
H          3.55010       -0.84870        0.07620
H         -0.01310       -0.72090        2.03750
