20
gdb 11573	3.7264	1.08742	0.93969	2.8042	71.7	-0.251	0.079	0.33	1293.4046	0.174618	-386.109955	-386.100459	-386.099515	-386.145041	33.284
C          0.14190        1.56300       -0.36650
O         -0.05600        0.18830       -0.13370
C          0.57170       -0.67830       -1.07400
C          2.08020       -0.78560       -0.83600
C         -0.12460       -2.03480       -0.93900
C         -1.59880       -1.97220       -1.26100
C         -2.11650       -2.29390       -2.59770
O         -2.24830       -3.22020       -1.51860
H          1.19020        1.86970       -0.23990
H         -0.18170        1.85490       -1.37820
H         -0.46470        2.10280        0.36510
H          0.39520       -0.28570       -2.09090
H          2.53700       -1.45680       -1.57010
H          2.57280        0.18640       -0.92610
H          2.27890       -1.17980        0.16570
H          0.35650       -2.76400       -1.59960
H          0.00720       -2.39120        0.09020
H         -2.17770       -1.28710       -0.64390
H         -3.04560       -1.84500       -2.94690
H         -1.42290       -2.59040       -3.38470
