15
gdb 1864	4.75747	2.23069	1.86328	2.0194	56.61	-0.2438	-0.0242	0.2196	715.7164	0.124654	-345.680616	-345.673856	-345.672912	-345.71148	24.789
C          0.41120        1.37520        0.18250
C         -0.17080        0.00350       -0.15610
C          0.52850       -0.68510       -1.33650
C          1.58940       -1.54990       -0.65480
O          2.54010       -2.08150       -1.16180
C          1.20620       -1.59940        0.82670
O         -0.02200       -0.91380        0.94720
H          1.49760        1.32820        0.31840
H          0.20440        2.08910       -0.62150
H         -0.03310        1.75430        1.10650
H         -1.24890        0.09490       -0.31580
H         -0.15630       -1.35290       -1.87190
H          0.97970       -0.00940       -2.06570
H          1.08680       -2.63270        1.16960
H          2.01150       -1.13900        1.42130
