16
gdb 14538	4.55165	1.574	1.43805	3.3052	69.79	-0.269	0.0278	0.2969	898.9634	0.132081	-342.762839	-342.755559	-342.754615	-342.79399	28.036
N         -0.12680        1.43440        0.03160
C         -0.07450       -0.00450        0.03070
C          1.00910       -0.60630       -0.72510
N          1.89100       -1.03320       -1.34170
C         -0.46750       -0.79890        1.26640
C         -1.55870       -0.05580        2.04670
C         -2.46420       -0.08800        0.77410
C         -1.35150       -0.83020        0.02380
H          0.72780        1.82370        0.41790
H         -0.22040        1.79010       -0.91500
H          0.20190       -1.55560        1.65630
H         -1.96210       -0.66310        2.85920
H         -1.28820        0.92990        2.42920
H         -3.34930       -0.71250        0.90950
H         -2.76030        0.87750        0.36040
H         -1.48200       -1.61530       -0.71070
