18
gdb 17065	3.95205	1.50516	1.29059	2.743	68.82	-0.2332	0.0817	0.3149	1012.8576	0.152258	-384.851314	-384.843315	-384.84237	-384.883803	29.556
C         -0.79420        1.06060       -0.12360
O         -0.94380       -0.27390       -0.55710
C          0.03620       -0.67360       -1.45350
C          1.38770       -1.25140       -0.91580
O          0.63240       -2.40320       -0.37790
C          0.09170       -2.18820       -1.73970
C          1.55970       -2.04640       -2.24310
C          1.96260       -1.42950       -3.57410
H          0.13450        1.20510        0.44780
H         -0.79310        1.76600       -0.96980
H         -1.64430        1.28690        0.52360
H          0.09670        0.01200       -2.30890
H          2.14520       -0.80120       -0.27290
H         -0.70480       -2.85250       -2.07670
H          2.10290       -2.97360       -2.04680
H          1.44150       -0.49760       -3.80480
H          3.03740       -1.21830       -3.58120
H          1.76390       -2.13100       -4.39140
