9
gdb 3824	9.65728	2.00903	1.66306	4.8051	50.77	-0.2995	-0.0655	0.234	656.2298	0.056641	-338.23459	-338.229406	-338.228462	-338.263666	18.266
N          0.01030       -1.14660       -0.00340
C         -0.02000        0.00890        0.00310
C         -0.00130        1.43370        0.01050
N         -1.13060        2.11860        0.02880
O         -0.74890        3.43860        0.03090
C          0.59150        3.52350        0.01420
C          1.14210        2.28490        0.00050
H          0.99940        4.52180        0.01430
H          2.18050        2.00360       -0.01440
