13
gdb 1458	7.92611	1.49137	1.2651	4.268	52.88	-0.2676	-0.034	0.2336	871.8632	0.101727	-377.799358	-377.792122	-377.791178	-377.830934	25.093
O          0.10130        1.48520       -0.00850
C          0.02120        0.09630       -0.04380
C         -1.42550       -0.37130       -0.03870
N         -2.34230        0.50150       -0.00540
N         -1.57870       -1.76660       -0.07270
C         -2.76820       -2.45840       -0.07760
O         -3.86880       -1.95920       -0.05200
H         -0.82480        1.78690        0.01010
H          0.51530       -0.30730       -0.94530
H          0.53640       -0.35350        0.82330
H         -3.27450        0.09150       -0.00510
H         -0.73480       -2.32130       -0.09730
H         -2.60150       -3.55160       -0.10880
