13
gdb 8748	4.1953	1.28899	1.20907	4.9324	60.31	-0.2904	0.0016	0.292	989.782	0.092774	-398.558204	-398.549603	-398.548658	-398.591345	30.278
O          0.50830        1.57170        0.05350
C          0.18400        0.18370        0.05680
C          0.67750       -0.50030       -1.13590
C          1.06110       -1.03400       -2.14150
C          0.85040       -0.36950        1.34580
O          2.21440       -0.05330        1.38360
C          0.13160        0.14670        2.53540
N         -0.42630        0.53810        3.46780
H          0.41990        1.90380       -0.84550
H         -0.90360        0.04170        0.13710
H          1.40580       -1.51550       -3.02390
H          0.76510       -1.46020        1.34590
H          2.27730        0.87930        1.13240
