17
gdb 1319	3.38529	2.49965	2.08605	2.3266	60.13	-0.2427	0.0662	0.309	730.4646	0.146404	-346.840522	-346.832677	-346.831732	-346.871994	29.06
C          0.00550        1.55510       -0.11290
C          0.05880        0.05320        0.06000
O          0.95950       -0.59610       -0.87060
C          1.43610       -1.48940        0.15450
C          0.77970       -0.61830        1.25930
C          1.76090        0.24610        2.03740
O         -0.14520       -1.25780        2.11310
H          0.99630        2.00830       -0.02540
H         -0.39200        1.79990       -1.10290
H         -0.65690        2.00160        0.63630
H         -0.95130       -0.37430       -0.02330
H          0.98110       -2.48650        0.08490
H          2.52900       -1.57620        0.14920
H          2.46110        0.75420        1.36900
H          1.23370        0.99900        2.63110
H          2.35410       -0.37640        2.71970
H          0.32440       -1.57210        2.89280
