12
gdb 23622	3.92749	1.83174	1.24915	5.8522	59.52	-0.2242	-0.019	0.2052	857.3984	0.085053	-422.679993	-422.673749	-422.672804	-422.710402	23.815
F          0.09890        0.03490        0.00230
C         -0.03630        1.35500        0.01090
C         -1.22350        1.98930        0.03020
C         -1.28160        3.45570        0.03840
O         -2.33180        4.08510        0.05620
C          0.04180        4.10110        0.02390
C          1.18480        3.38580        0.00470
N          1.15960        2.00880       -0.00200
H         -2.14340        1.42070        0.03990
H          0.07410        5.18310        0.02910
H          2.17350        3.82650       -0.00640
H          2.00630        1.46420       -0.01620
