14
gdb 2318	6.71869	1.47692	1.3421	4.5785	57.76	-0.276	0.0414	0.3174	869.3087	0.113112	-324.571682	-324.564481	-324.563536	-324.603339	25.682
O         -0.08950        1.44170        0.19000
C          0.01670        0.05040        0.09810
C         -0.61410       -0.81320        1.16100
C         -1.25050       -0.69680       -0.20870
C         -2.54410        0.08390       -0.37940
C         -3.71860       -0.67760        0.04690
N         -4.64010       -1.28820        0.38400
H          0.47310        1.73860        0.91260
H          0.93060       -0.30600       -0.37600
H         -0.13740       -1.74640        1.43860
H         -1.10970       -0.29550        1.97610
H         -1.15800       -1.55790       -0.86240
H         -2.49070        1.01440        0.19280
H         -2.67940        0.37290       -1.42820
