17
gdb 3509	6.05579	1.83003	1.77839	1.3371	64.79	-0.2617	0.076	0.3377	775.4136	0.149811	-309.655144	-309.648625	-309.647681	-309.685724	24.971
O         -0.11350        1.47550       -0.19060
C          0.04860        0.08540        0.07360
C         -1.32760       -0.54340       -0.00550
C         -2.03730       -0.80930       -1.37320
C         -1.09060       -2.02720       -1.58580
C         -1.52880       -2.08980       -0.09170
C         -2.97060       -1.78230       -0.59420
H          0.74560        1.89850       -0.10350
H          0.75270       -0.36890       -0.63710
H          0.45770       -0.07930        1.08450
H         -1.97390       -0.05080        0.73010
H         -2.33170       -0.06330       -2.11170
H         -1.47200       -2.82410       -2.23040
H         -0.04060       -1.82810       -1.80440
H         -1.23740       -2.83390        0.65230
H         -3.65780       -1.33310        0.12820
H         -3.45760       -2.56590       -1.18070
