11
gdb 2874	8.09235	1.97691	1.62107	4.9482	53.7	-0.2767	-0.0575	0.2192	704.9626	0.080115	-339.452794	-339.446818	-339.445874	-339.483063	20.317
N          0.06280       -1.11770       -0.08580
C         -0.00340        0.03350       -0.02340
C         -0.08030        1.46660        0.05500
N         -1.15230        2.13260       -0.07610
C         -0.76010        3.54410        0.07660
C          0.77210        3.50880        0.32200
O          1.09760        2.09400        0.28480
H         -1.03300        4.09600       -0.82800
H         -1.31400        3.98620        0.91020
H          1.35440        4.00700       -0.45650
H          1.07050        3.89550        1.29920
