15
gdb 1112	4.10896	1.96497	1.54732	1.4832	58.71	-0.2492	-0.0424	0.2068	819.2534	0.121652	-345.700085	-345.691786	-345.690842	-345.733546	28.109
C          0.40490        0.78920        0.64460
C         -0.61320       -0.10330       -0.02820
O         -1.60780       -0.51420        0.52090
C         -0.27550       -0.52490       -1.46700
C          0.53760       -1.82580       -1.37400
C         -0.27300       -3.10200       -1.37860
O          1.73950       -1.79830       -1.25490
H          1.40850        0.37250        0.50530
H          0.40230        1.77570        0.16590
H          0.17430        0.89730        1.70490
H         -1.21130       -0.68490       -2.00580
H          0.33920        0.22880       -1.96260
H         -0.72640       -3.24610       -2.36640
H          0.36140       -3.95620       -1.13970
H         -1.09690       -3.01680       -0.66160
