18
gdb 12930	3.50968	1.73574	1.42976	1.5508	68.42	-0.2232	0.0697	0.2929	947.1302	0.152244	-384.881235	-384.87296	-384.872016	-384.913872	30.093
C          0.27530        0.94820        0.44470
O         -0.43820        0.08200       -0.42110
C          0.36970       -0.52830       -1.36910
C          1.40040       -1.56410       -1.00900
O          1.02260       -2.26550        0.17200
C         -0.18710       -2.73820       -0.47920
C          0.12640       -1.96060       -1.76080
C         -0.15180       -2.43780       -3.15610
H          1.03880        0.39990        1.01020
H          0.75810        1.76720       -0.10920
H         -0.45290        1.37450        1.13870
H          0.66530        0.11250       -2.20520
H          2.45230       -1.54410       -1.27600
H         -0.14430       -3.82480       -0.61670
H         -1.09150       -2.45600        0.06800
H         -1.22480       -2.39970       -3.37940
H          0.35920       -1.81430       -3.89630
H          0.18390       -3.47090       -3.29960
