16
gdb 16714	5.98893	1.39596	1.25185	0.9041	80.51	-0.2164	-0.0169	0.1996	973.3927	0.131169	-309.440041	-309.433134	-309.432189	-309.470854	27.485
C          0.06980       -1.16980        0.08880
C         -0.01400        0.03230        0.04580
C         -0.05000        1.44460       -0.01110
C         -1.14740        2.22430       -0.03100
C         -0.80780        3.66890       -0.00310
C         -0.07060        4.13320        1.24330
C          0.71460        3.72210        0.02880
C          1.22540        2.28560       -0.04730
H          0.12580       -2.22910        0.12580
H         -2.16410        1.85020       -0.03130
H         -1.41110        4.38330       -0.55180
H         -0.10310        5.19330        1.47270
H         -0.08530        3.47930        2.10960
H          1.24990        4.49140       -0.51460
H          1.89910        2.02940        0.77880
H          1.78180        2.09930       -0.97430
