21
gdb 19305	6.38925	0.83765	0.8355	0.9939	79.53	-0.2294	0.0913	0.3207	1457.975	0.188968	-329.080376	-329.071849	-329.070905	-329.114192	31.638
C         -0.03070        1.49160        0.20750
C          0.11180       -0.03240        0.18810
N         -1.19280       -0.68120        0.26900
C         -1.86340       -0.94220       -1.00060
C         -1.26400       -2.05450       -0.21300
C          1.30460        2.20370        0.19250
C          2.01900        2.47020       -1.11060
C          1.41940        3.61300       -0.32790
H         -0.62430        1.80870       -0.66010
H         -0.60620        1.77680        1.09660
H          0.67280       -0.34140       -0.71370
H          0.69970       -0.35950        1.05510
H         -2.93850       -0.78760       -1.01310
H         -1.35090       -0.65370       -1.91790
H         -0.35420       -2.50580       -0.60690
H         -1.89280       -2.72790        0.36280
H          1.94720        1.96310        1.03680
H          3.09890        2.37620       -1.14230
H          1.52240        2.17280       -2.02910
H          0.52280        4.08080       -0.72160
H          2.08990        4.29880        0.17820
