14
gdb 5039	3.54387	2.34565	1.42391	2.2184	66.04	-0.2404	-0.044	0.1963	820.2206	0.10979	-378.791576	-378.784883	-378.783939	-378.822499	24.634
C         -0.00720        1.44830        0.00380
N         -0.00500       -0.01110       -0.01830
C         -0.14440       -0.70620       -1.17440
N         -0.15370       -1.99960       -1.28180
C         -0.00750       -2.69040       -0.10700
C          0.14000       -2.10490        1.11060
C          0.15090       -0.66680        1.23800
O          0.27290       -0.00460        2.25310
H          0.93130        1.81440        0.42530
H         -0.13220        1.82160       -1.01350
H         -0.82010        1.80850        0.63790
H         -0.25640       -0.10010       -2.07080
H         -0.01590       -3.77260       -0.20380
H          0.25340       -2.68140        2.01980
