12
gdb 4701	6.57104	1.36384	1.12942	3.2449	68.73	-0.2017	-0.0082	0.1935	962.9051	0.084153	-377.522164	-377.515114	-377.51417	-377.553187	26.375
O          0.08220        1.33160        0.25020
C          0.06750        0.00250        0.01290
C          0.06020       -0.78510       -1.11570
N          0.04450       -2.10910       -0.75820
C          0.04230       -2.13640        0.56090
N          0.05610       -0.85070        1.07520
C          0.02810       -3.27100        1.39880
C          0.01610       -4.21810        2.14300
H          0.09010        1.79530       -0.59310
H          0.06530       -0.47200       -2.14860
H          0.05770       -0.58510        2.04640
H          0.00540       -5.06400        2.78480
