14
gdb 5507	3.70836	1.97398	1.29897	4.4471	72.4	-0.2291	-0.0215	0.2076	883.5896	0.109159	-341.640686	-341.633448	-341.632504	-341.672646	25.861
C         -0.00640        1.43570        0.05660
N         -0.02900       -0.01570        0.01660
C         -0.00260       -0.78510       -1.10720
C          0.04110       -2.11710       -0.74070
C          0.04590       -2.16220        0.66790
C          0.00500       -0.85050        1.12040
C         -0.01290       -0.34250        2.43600
N         -0.02960        0.09210        3.51160
H          1.01180        1.81410        0.19400
H         -0.40720        1.82370       -0.88130
H         -0.62570        1.79360        0.88140
H         -0.01770       -0.32380       -2.08240
H          0.05740       -2.95790       -1.41590
H          0.06570       -3.03590        1.29970
