12
gdb 453	7.69225	3.61351	2.57546	3.9802	46.25	-0.2457	0.0629	0.3086	491.6466	0.100038	-302.599262	-302.594109	-302.593165	-302.627663	18.931
O          0.00260       -0.03870        0.00350
C         -0.01380        1.17100        0.00980
N         -1.11100        1.99180       -0.23420
C         -0.81060        3.37330        0.11110
C          0.72280        3.39500       -0.06840
N          1.06070        2.01870        0.26250
H         -2.01790        1.59620       -0.04380
H         -1.31400        4.08240       -0.55130
H         -1.08110        3.61360        1.14960
H          0.98660        3.65340       -1.10430
H          1.20690        4.11060        0.60140
H          1.97800        1.64980        0.06810
