21
gdb 1095	4.25341	1.42238	1.38683	1.2727	70.88	-0.2594	0.0658	0.3252	1028.318	0.192	-312.136049	-312.126599	-312.125655	-312.169395	34.823
C         -0.03180        1.61130        0.13030
C          0.01870        0.08730       -0.01240
C         -1.37510       -0.54480       -0.09500
C         -1.40880       -2.08820       -0.03220
C         -2.86440       -2.57730       -0.05240
C         -0.61740       -2.73370       -1.17320
O         -0.76780       -2.54600        1.16780
H          0.97400        2.04010        0.18160
H         -0.54760        2.07530       -0.71820
H         -0.56600        1.90760        1.04030
H          0.59810       -0.17060       -0.90660
H          0.55230       -0.35270        0.83710
H         -1.98660       -0.16420        0.73750
H         -1.88280       -0.21400       -1.01100
H         -3.36650       -2.30230       -0.98580
H         -2.89940       -3.66540        0.05330
H         -3.43540       -2.13460        0.77290
H          0.44140       -2.47290       -1.10960
H         -0.69810       -3.82280       -1.11550
H         -1.00010       -2.40790       -2.14510
H         -1.27610       -2.21280        1.91540
