17
gdb 8603	4.2744	1.94469	1.75137	3.2276	69.72	-0.2063	0.044	0.2503	799.0306	0.142786	-363.693009	-363.686404	-363.68546	-363.723266	26.958
O          0.09210        1.47360       -0.13750
C          0.07020        0.07460       -0.01620
C          0.30870       -0.53440        1.45650
C         -1.22840       -0.72330        1.49250
C         -2.58550       -1.49990        1.44440
N         -2.82540       -0.31800        0.44470
C         -2.13540        0.53290        1.52010
C         -1.34360       -0.65010       -0.00020
H          1.00530        1.76750       -0.05440
H          0.71770       -0.38930       -0.77320
H          0.88210       -1.46420        1.40580
H          0.75730        0.13520        2.19690
H         -2.58680       -2.48470        0.97010
H         -3.26750       -1.45800        2.29940
H         -2.74940        0.68350        2.41340
H         -1.73980        1.47290        1.14150
H         -1.31340       -1.56390       -0.59880
