17
gdb 3362	4.16223	2.62832	2.53249	0.182	68.23	-0.2226	0.0239	0.2465	660.1028	0.150086	-272.583285	-272.577007	-272.576063	-272.612962	24.896
C         -0.09810        1.55440        0.04970
C          0.05000        0.05300       -0.04090
C          0.71320       -0.66660       -1.19070
C          1.66630        0.10160       -2.11110
C          2.79620        0.52160       -1.19320
C          2.62640        0.06230        0.04960
C          1.35520       -0.70130        0.19460
H          0.81410        2.07520       -0.25050
H         -0.91360        1.90330       -0.59440
H         -0.33280        1.86040        1.07520
H         -0.81450       -0.48360        0.34530
H          0.21450       -1.54190       -1.59110
H          2.02820       -0.53400       -2.93020
H          1.18480        0.96650       -2.58790
H          3.61730        1.14650       -1.52710
H          3.30460        0.23470        0.87800
H          1.32910       -1.58270        0.82700
