16
gdb 20279	5.38668	2.1535	2.0749	3.0642	67.61	-0.2124	0.0698	0.2822	704.6935	0.13404	-342.668571	-342.663357	-342.662412	-342.697486	22.591
C         -0.04540        1.49350        0.00950
C          1.46360        1.26000       -0.00580
C          1.19150        0.09660        1.00360
C          2.15310       -1.04650        0.71400
N          1.51860       -2.16800       -0.02370
C          2.13930       -1.03900       -0.76170
C          1.17250        0.10690       -1.02160
N          0.01650       -0.03810        0.00120
H         -0.49960        1.90240        0.91670
H         -0.51650        1.91150       -0.88480
H          2.28540        1.98710       -0.00980
H          0.89390        0.31130        2.03120
H          3.03680       -1.21200        1.31890
H          2.17840       -2.94540       -0.03380
H          3.01150       -1.19830       -1.38470
H          0.85580        0.33200       -2.04120
