13
gdb 1454	8.38323	1.54988	1.31891	3.9863	54.05	-0.2548	-0.0008	0.254	869.7872	0.101505	-377.80758	-377.799863	-377.798919	-377.840129	25.32
C          0.17670        1.36190        0.00720
O         -0.04090       -0.05170        0.00170
C         -1.35070       -0.41750        0.01170
O         -2.27830        0.34190        0.02460
N         -1.38990       -1.80410        0.00490
C         -2.50380       -2.63530        0.01160
N         -3.70320       -2.22940        0.02580
H          1.25890        1.49350       -0.00210
H         -0.27190        1.82660       -0.87450
H         -0.25540        1.81710        0.90200
H         -0.48760       -2.25140       -0.00600
H         -2.18520       -3.68540        0.00260
H         -4.33360       -3.02960        0.02770
