20
gdb 16807	3.41066	1.81352	1.37112	0.2817	80.82	-0.2167	0.0291	0.2458	985.3282	0.177747	-311.879246	-311.871387	-311.870443	-311.910894	30.884
C         -0.18780        1.59170        0.05920
C          0.02390        0.07100        0.01210
C          0.82410       -0.41700       -1.18160
C          1.82070       -1.24480       -0.84810
C          2.78510       -1.92990       -1.76450
C          1.90400       -1.39380        0.64080
C          2.24950       -0.11770        1.38470
C          0.80490       -0.50950        1.19790
H          0.76710        2.12390        0.10880
H         -0.72070        1.94130       -0.83160
H         -0.77960        1.87760        0.93500
H         -0.97350       -0.39530       -0.01000
H          0.60000       -0.09580       -2.19420
H          2.58140       -1.69700       -2.81320
H          3.81960       -1.63920       -1.54180
H          2.73710       -3.02000       -1.64450
H          2.17030       -2.35050        1.07870
H          2.65200       -0.21260        2.38820
H          2.66130        0.70470        0.80880
H          0.25240       -0.80410        2.08270
