20
gdb 11480	3.42644	1.40754	1.29645	1.0477	70.41	-0.2538	0.0707	0.3245	1040.3501	0.177943	-386.14835	-386.139808	-386.138864	-386.181664	31.987
O          0.16370        1.17010       -0.49880
C          0.01300       -0.21600       -0.21730
C         -1.45790       -0.48080        0.08810
C         -2.37930       -0.13440       -1.12030
C         -3.27340       -1.37310       -1.32970
C         -2.40190       -2.54340       -0.85600
O         -1.36480       -2.84520       -1.79180
C         -1.72110       -1.98130        0.39540
H          1.06580        1.31870       -0.79560
H          0.31650       -0.83780       -1.07280
H          0.63000       -0.51080        0.64760
H         -1.72530        0.13420        0.95350
H         -2.96190        0.77370       -0.95090
H         -1.76560        0.04830       -2.00650
H         -4.16990       -1.32040       -0.69960
H         -3.61720       -1.49450       -2.36360
H         -2.98910       -3.44760       -0.63960
H         -1.77730       -3.02740       -2.64220
H         -0.80850       -2.53900        0.62570
H         -2.39560       -2.08890        1.25050
