18
gdb 15844	5.5217	0.94272	0.88468	1.498	64.39	-0.2614	0.0799	0.3413	1304.0238	0.152292	-422.04267	-422.033753	-422.032809	-422.076689	31.799
O         -0.16590        1.45650        0.10910
C         -0.01110        0.04460        0.09060
C         -1.39880       -0.57190       -0.02010
C         -1.36250       -2.10490       -0.07460
O         -0.71080       -2.66170        1.05560
C         -2.76850       -2.67560       -0.19920
C         -3.08690       -4.03490        0.24390
O         -3.42320       -2.89770        1.05770
H          0.69880        1.84960        0.25790
H          0.60580       -0.27720       -0.76570
H          0.47870       -0.32370        1.00210
H         -2.00500       -0.25020        0.83580
H         -1.88930       -0.18430       -0.92170
H         -0.77760       -2.42250       -0.94870
H         -1.36750       -2.64040        1.76650
H         -3.40050       -2.21390       -0.95820
H         -3.93840       -4.55740       -0.18750
H         -2.29060       -4.66010        0.63940
