22
gdb 10987	2.68037	2.28031	1.65153	0.1219	81.36	-0.2738	0.0848	0.3586	919.5411	0.201996	-313.074224	-313.066437	-313.065493	-313.105479	31.733
C         -0.16840        1.53680       -0.02900
C          0.00510        0.02330       -0.00160
C          1.13720       -0.59290       -0.88350
C          2.11430       -0.27730        0.28320
C          0.86370       -0.59830        1.16150
C          0.73960       -0.14550        2.59820
C          0.68600       -2.10570        0.86910
C          0.89460       -2.10080       -0.68290
H          0.77280        2.08090        0.08920
H         -0.61210        1.85370       -0.97940
H         -0.84130        1.86650        0.77060
H         -0.97850       -0.44680       -0.13380
H          1.32210       -0.24330       -1.90080
H          2.99390       -0.91930        0.39920
H          2.42030        0.76840        0.33260
H          0.86080        0.93880        2.69300
H         -0.24040       -0.40930        3.01410
H          1.50140       -0.62020        3.22780
H          1.42880       -2.71470        1.39460
H         -0.30570       -2.46480        1.16280
H          0.01530       -2.45730       -1.22800
H          1.75040       -2.70690       -0.99470
