12
gdb 6248	4.81894	1.24236	0.99805	6.2655	60.24	-0.2613	-0.05	0.2114	1075.6364	0.082363	-414.680262	-414.672036	-414.671092	-414.713641	28.743
N         -0.20850        1.35990       -0.00060
C          0.13820        0.02110        0.07660
O          1.26230       -0.37680        0.23480
N         -1.00530       -0.80760        0.01610
C         -1.01630       -2.19700       -0.08950
O         -0.05390       -2.89580       -0.27940
C         -2.36930       -2.73040        0.03870
C         -3.47200       -3.19960        0.13710
H          0.59250        1.96690       -0.09040
H         -1.00080        1.62480       -0.56610
H         -1.90470       -0.37350        0.16020
H         -4.43900       -3.63260        0.22510
