19
gdb 1689	3.62415	1.73185	1.46328	2.0779	63.34	-0.2518	0.0657	0.3175	919.7378	0.169416	-348.052027	-348.042805	-348.041861	-348.085398	33.07
C         -0.15450        1.52720       -0.06050
C          0.03200        0.00900       -0.00320
O          0.73920       -0.46750       -1.14990
C          0.79530       -0.49210        1.23640
C          0.75630       -2.02470        1.31150
C          2.24230        0.03230        1.28210
O          2.92630       -0.33940        2.47270
H          0.80220        2.04550       -0.16630
H         -0.77950        1.80190       -0.91840
H         -0.65430        1.89590        0.84120
H         -0.96970       -0.45310        0.02790
H          0.27170       -0.16730       -1.93520
H          0.27590       -0.09060        2.11670
H          1.25430       -2.46920        0.44450
H          1.24110       -2.38620        2.22360
H         -0.27540       -2.39130        1.32750
H          2.78280       -0.30170        0.38640
H          2.24830        1.12610        1.27870
H          3.14540       -1.27300        2.40750
