18
gdb 18367	3.18462	2.31162	1.64016	2.0295	67.04	-0.2459	0.0767	0.3227	835.7963	0.155288	-384.931627	-384.92459	-384.923646	-384.962765	27.037
C          0.11410        1.56680        0.02350
C          0.18030        0.05180       -0.02520
O          1.07730       -0.34980       -1.06460
C          1.42070       -1.70490       -0.81430
C          1.56830       -1.81530        0.70430
C          2.75330       -1.04580        1.32290
O          1.89200        0.01790        1.78210
C          0.72320       -0.62900        1.23860
H          1.08380        1.97050        0.32110
H         -0.15510        1.96490       -0.95820
H         -0.63880        1.89290        0.74760
H         -0.82110       -0.37190       -0.22530
H          0.62760       -2.38390       -1.16990
H          2.33840       -1.92750       -1.36680
H          1.38000       -2.81300        1.09950
H          3.25560       -1.54660        2.15920
H          3.50570       -0.68700        0.60980
H         -0.04120       -0.80120        2.00310
