11
gdb 21619	4.02546	2.06119	1.36332	4.5358	56.	-0.252	-0.0655	0.1865	804.0496	0.07246	-430.726767	-430.719969	-430.719025	-430.758023	24.205
N          0.01160        1.34080        0.06120
C         -0.04860       -0.00250        0.02020
N         -1.17880       -0.63320        0.01440
C         -1.12800       -2.01260       -0.00370
O         -2.10010       -2.73620       -0.01150
C          0.24640       -2.59270       -0.01720
N          1.34150       -1.93570       -0.01680
O          1.19780       -0.53390        0.00200
H          0.89190        1.81430       -0.04120
H         -0.85230        1.84980       -0.01000
H          0.35680       -3.67310       -0.03130
