20
gdb 11041	3.9733	1.68745	1.42435	1.3172	74.35	-0.2238	0.0876	0.3114	965.6374	0.177219	-349.005611	-348.997637	-348.996693	-349.03733	31.174
C         -0.00430        1.56510       -0.03270
C          0.03820        0.03920        0.05710
C          0.78280       -0.62360       -1.12770
O          1.34010       -1.84250       -0.64900
C          1.54100       -1.72820        0.74550
C          1.64720       -3.07090        1.40880
C          2.29740       -0.51360        1.22850
C          0.77340       -0.54320        1.25720
H          1.00610        1.98740       -0.01420
H         -0.48990        1.89520       -0.95790
H         -0.56150        1.99560        0.80520
H         -0.99030       -0.34320        0.08670
H          0.12930       -0.85890       -1.97290
H          1.57660        0.04410       -1.49660
H          2.50730       -3.62700        1.02120
H          1.77360       -2.95820        2.48900
H          0.74730       -3.66570        1.22220
H          2.80730       -0.59220        2.18290
H          2.80620        0.11750        0.50740
H          0.26900       -0.56390        2.21720
