20
gdb 17840	3.63415	1.51823	1.35015	1.5404	74.31	-0.2318	0.0782	0.31	1019.0736	0.176498	-348.963053	-348.954803	-348.953858	-348.995791	31.223
C          0.00640        1.66500        0.26800
C         -0.02690        0.15900       -0.02700
C          0.76970       -0.63610        1.01780
C         -1.45470       -0.35210       -0.10240
C         -2.42080       -0.11520       -1.25350
C         -1.70570       -0.29250       -2.58930
O         -1.15550       -1.57230       -2.17650
C         -1.89450       -1.50480       -0.95080
H          1.03460        2.04140        0.28680
H         -0.54790        2.23070       -0.48780
H         -0.44410        1.88480        1.24360
H          0.44200       -0.01670       -1.00170
H          0.76680       -1.70550        0.78590
H          1.81140       -0.30090        1.05680
H          0.34290       -0.50800        2.02010
H         -1.98320       -0.33050        0.85160
H         -3.40770        0.30760       -1.12190
H         -2.39390       -0.42990       -3.43100
H         -0.92800        0.42960       -2.86490
H         -2.36930       -2.41570       -0.60310
