11
gdb 3688	7.5822	2.18673	1.71534	3.3509	48.02	-0.262	-0.0173	0.2448	676.4096	0.078737	-376.587043	-376.580822	-376.579877	-376.617925	21.523
C         -0.03240        1.45480       -0.03450
C         -0.06220       -0.02920        0.02540
N         -1.02800       -0.83220       -0.31600
C         -0.47790       -2.06030       -0.04010
O         -1.13990       -3.19760       -0.24580
N          0.73920       -2.04900        0.43850
O          1.01880       -0.66550        0.48170
H          0.78290        1.79620       -0.67920
H         -0.98120        1.82000       -0.42670
H          0.13500        1.87540        0.96150
H         -2.00640       -2.96060       -0.59830
