17
gdb 20111	5.70335	1.19407	1.15232	2.6856	71.25	-0.2542	-0.0257	0.2284	1082.8825	0.143027	-363.844631	-363.836946	-363.836002	-363.877322	28.091
O         -0.02700        0.16020       -0.47770
C          0.04560        1.34610       -0.19950
C          1.33380        2.00390        0.13870
C          2.35180        1.18040        0.92230
C          2.59340        1.45660       -0.51900
C         -1.18630        2.19720       -0.19110
C         -2.06040        2.10390       -1.40740
N         -2.48070        1.50340       -0.15080
H          1.29390        3.06820        0.34010
H          2.93810        1.70610        1.66680
H          2.03090        0.18180        1.19470
H          2.43620        0.64260       -1.21690
H          3.35350        2.17730       -0.79720
H         -1.13710        3.13610        0.35240
H         -2.61690        2.98330       -1.71860
H         -1.71630        1.45380       -2.20700
H         -2.26830        0.50480       -0.18590
