15
gdb 16477	3.03369	2.73568	1.7614	4.2578	64.56	-0.2405	0.0024	0.243	761.9008	0.119055	-362.616243	-362.609534	-362.60859	-362.646982	25.534
C          0.01340        1.48680        0.06910
C          0.00100       -0.00670       -0.05050
C         -1.01130       -0.93380        0.68960
C         -1.02290       -2.24490       -0.09020
N          0.48690       -2.10410       -0.24960
C          0.44470       -1.10480        0.91730
C          0.53660       -0.89260       -1.12480
O          0.99370       -0.76150       -2.21560
H          0.99580        1.89020       -0.19380
H         -0.72540        1.93900       -0.60040
H         -0.22240        1.80430        1.08950
H         -1.75740       -0.49710        1.34390
H         -1.25060       -3.11200        0.53440
H         -1.56860       -2.30800       -1.03790
H          1.13150       -1.07770        1.74950
