17
gdb 14081	3.52949	1.69671	1.39228	3.7958	70.89	-0.2289	-0.0265	0.2025	942.1671	0.140944	-363.83692	-363.829059	-363.828114	-363.869226	29.093
C         -0.04770        1.42520       -0.22900
N          0.11830       -0.01300       -0.06040
C          1.47410       -0.52440       -0.05000
C          0.66680       -0.46820        1.21030
C          0.98040        0.31000        2.50780
C          0.56910       -0.94680        3.33860
C          0.15810       -1.64410        2.02140
O         -0.34660       -2.69430        1.75160
H          0.75700        2.02330        0.22790
H         -0.07700        1.64910       -1.29940
H         -1.00150        1.73380        0.20940
H          1.62760       -1.47900       -0.54630
H          2.29920        0.18480       -0.12360
H          2.01600        0.63170        2.63050
H          0.32430        1.16850        2.67160
H          1.39140       -1.45340        3.85170
H         -0.25040       -0.80920        4.04860
