20
gdb 10498	2.7439	1.32753	1.00807	0.1301	84.82	-0.2252	0.0619	0.287	1260.9681	0.175031	-311.84343	-311.833679	-311.832735	-311.879268	34.531
C         -0.36740        1.41900       -0.01860
C          0.20260       -0.00100       -0.07780
C          0.80630       -0.46830        1.24510
C         -0.13810       -1.04980        2.28890
C          0.79800       -1.95990        1.54540
C          1.93430        0.29590        1.71600
C          2.87930        0.94650        2.08680
C          4.02230        1.72550        2.54260
H          0.40920        2.13720        0.26040
H         -0.77590        1.71830       -0.98880
H         -1.17000        1.49100        0.72300
H         -0.58700       -0.70660       -0.36430
H          0.97140       -0.05940       -0.85790
H          0.07080       -0.83920        3.33090
H         -1.19290       -1.07860        2.03550
H          0.38630       -2.61410        0.78410
H          1.64780       -2.36710        2.08010
H          4.78500        1.08480        2.99960
H          4.49730        2.25730        1.71040
H          3.72980        2.47410        3.28790
