19
gdb 4056	5.30105	1.19361	1.01654	0.9579	75.11	-0.2366	0.0147	0.2513	1165.7622	0.165536	-365.049555	-365.041332	-365.040388	-365.082059	31.286
C         -0.25650        1.46620        0.02270
C          0.11130       -0.01450        0.05400
C          0.85990       -0.51800       -1.19980
C          1.48470       -1.86050       -0.77120
C          1.65030       -1.72710        0.72950
C          1.06130       -0.41750        1.20260
N          2.15920       -2.56650        1.53810
O          2.62850       -3.70650        0.85180
H          0.64020        2.08950       -0.07520
H         -0.91410        1.69380       -0.82300
H         -0.77530        1.77020        0.93800
H         -0.80970       -0.60580        0.15690
H          0.20870       -0.60750       -2.07370
H          1.65040        0.19830       -1.45810
H          0.82140       -2.70860       -0.98200
H          2.43430       -2.09020       -1.26290
H          1.85880        0.33460        1.29530
H          0.58000       -0.50030        2.17980
H          2.97050       -4.24680        1.57160
