20
gdb 13267	7.25497	0.74685	0.72609	0.0526	86.12	-0.236	0.0568	0.2928	1647.8823	0.176911	-311.841123	-311.832046	-311.831102	-311.877229	32.272
C         -0.45920        1.71290       -0.21400
C          0.01180        0.27860        0.08920
C          0.77630       -0.31700       -1.00200
C          1.40280       -0.78340       -1.92110
C          2.16750       -1.37480       -3.00000
C          3.68570       -1.68730       -2.78510
C          3.49410       -2.99000       -3.60500
C          1.96850       -2.88850       -3.34370
H          0.39450        2.37010       -0.40090
H         -1.09840        1.73190       -1.10090
H         -1.02720        2.11630        0.62990
H          0.61950        0.28020        1.00370
H         -0.85940       -0.35170        0.31140
H          2.04880       -0.78030       -3.91350
H          4.40300       -0.94660       -3.14540
H          3.88990       -1.89540       -1.73180
H          3.73500       -2.84260       -4.66190
H          4.00790       -3.88750       -3.25490
H          1.66990       -3.44810       -2.45380
H          1.28370       -3.12880       -4.16000
