14
gdb 363	9.81743	2.15461	1.81196	3.5856	51.35	-0.2383	0.067	0.3052	689.1369	0.119461	-303.787203	-303.779425	-303.778481	-303.819322	25.314
C          0.00640        1.44700       -0.05990
N         -0.04890        0.00270        0.07600
C          0.65700       -0.61520        1.09280
O          1.18690       -0.00350        2.00460
N          0.70490       -1.99300        0.97690
C          1.21200       -2.78770        2.08090
H          0.85320        1.78730       -0.67170
H         -0.92100        1.81500       -0.50820
H          0.11830        1.87130        0.93790
H         -0.17110       -0.52250       -0.77580
H         -0.00200       -2.42490        0.40250
H          0.43600       -3.04550        2.81470
H          1.65710       -3.71200        1.70110
H          1.97690       -2.20120        2.58980
