15
gdb 18633	3.28438	2.09766	1.83151	2.9364	61.95	-0.2544	0.0144	0.2688	776.9025	0.120479	-399.796285	-399.789569	-399.788625	-399.827067	25.918
O          0.11760        1.37190        0.02080
C         -0.02460       -0.01060       -0.03550
C         -1.34770       -0.70610        0.03740
C         -2.54230        0.16660       -0.29730
O         -2.25470        0.76760       -1.57820
C         -1.27000        0.05470       -2.23820
N         -1.04150        0.13830       -3.47560
C         -0.52830       -0.76890       -1.25430
H         -0.51410        1.78050       -0.58330
H          0.80170       -0.48420        0.48330
H         -1.49650       -1.56920        0.67490
H         -3.46360       -0.42080       -0.37740
H         -2.70060        0.98030        0.41730
H         -1.72190        0.75280       -3.92550
H         -0.00680       -1.64550       -1.61260
