16
gdb 18969	6.31338	1.34393	1.32595	2.5312	64.07	-0.2312	0.0689	0.3001	939.9659	0.130197	-383.628872	-383.622076	-383.621132	-383.660053	26.061
O         -0.04390        1.46410       -0.29480
C          0.05610        0.10090        0.09410
C         -1.33940       -0.48720        0.05950
C         -1.98020       -0.78780       -1.31500
C         -1.22790       -2.15210       -1.45790
O         -2.43110       -2.92880       -1.73070
C         -2.83440       -1.95250       -0.72620
C         -1.49830       -2.02510        0.07750
H          0.83110        1.85930       -0.23940
H          0.72060       -0.45920       -0.58430
H          0.47320        0.00570        1.11000
H         -1.99060        0.05420        0.75440
H         -2.26350       -0.10880       -2.11780
H         -0.31650       -2.40640       -1.99740
H         -3.86390       -1.95520       -0.36940
H         -1.24100       -2.75150        0.84890
