18
gdb 18391	3.28124	2.31449	1.56651	1.1602	73.06	-0.2353	0.0163	0.2515	845.5822	0.155907	-347.786564	-347.779805	-347.778861	-347.817101	27.237
C         -0.06060        1.46850        0.03480
C          1.31550        0.87890        0.06930
O          1.93680        0.94310        1.31440
C          2.77670       -0.15240        1.64290
C          2.15640       -1.54320        1.37980
C          0.68770       -1.62450        1.72260
C         -0.23510       -0.94010        1.04520
C          0.11840       -0.03680       -0.08470
H         -0.42800        1.85200        0.97990
H         -0.37100        2.02360       -0.84320
H          1.97690        1.02350       -0.78630
H          3.73460       -0.08110        1.10350
H          2.98680       -0.02540        2.70950
H          2.29300       -1.79800        0.32260
H          2.73530       -2.27790        1.94880
H          0.38830       -2.26340        2.54930
H         -1.28800       -1.03640        1.30320
H         -0.05590       -0.44100       -1.08160
