15
gdb 18630	3.2682	2.16039	1.82804	3.7155	60.95	-0.2495	-0.0049	0.2446	774.8606	0.120091	-399.805369	-399.798636	-399.797692	-399.836189	25.351
C         -0.13650        1.49970        0.18140
N          0.07210        0.06660       -0.00990
C          0.51640       -0.48580       -1.26930
C          1.19580        0.43970       -2.26450
O          2.31190        1.03140       -1.57930
C          2.55510        0.40490       -0.38490
O          3.54030        0.61890        0.25830
C          1.41160       -0.52180       -0.07140
H          0.56530        2.15350       -0.35270
H         -1.15360        1.73910       -0.14290
H         -0.06260        1.71550        1.25050
H         -0.01870       -1.35350       -1.64300
H          1.56830       -0.12030       -3.12890
H          0.55110        1.24850       -2.62260
H          1.61080       -1.38010        0.55960
