9
gdb 786	9.81669	3.7809	2.7296	1.2703	39.79	-0.2405	-0.0028	0.2377	431.818	0.064229	-317.408548	-317.403907	-317.402963	-317.436318	16.703
O          0.12030        1.33100        0.08870
C          0.07300       -0.01190        0.06810
N          0.11140       -0.72740       -1.05070
N          0.03980       -1.98190       -0.59260
N         -0.04090       -2.12850        0.71710
C         -0.02190       -0.87580        1.17490
H          0.18390        1.63640       -0.82470
H          0.04720       -2.77060       -1.21700
H         -0.07430       -0.65090        2.22660
