18
gdb 19251	2.81409	2.14906	1.65234	2.6239	71.49	-0.2379	-0.0202	0.2177	863.4848	0.153207	-347.783803	-347.775958	-347.775014	-347.816233	29.194
C         -0.21840        1.51840        0.15100
C          0.08180        0.02830        0.04160
C          0.69810       -0.52210       -1.25360
C          2.12970       -0.09640       -1.41620
C          1.80920       -1.22230       -0.47290
C          1.24560       -0.65670        0.85900
C          2.26600        0.12570        1.63730
O          2.48220        1.30940        1.53750
H          0.65210        2.13260       -0.08050
H         -1.02730        1.78210       -0.54030
H         -0.54480        1.78200        1.16240
H         -0.83080       -0.53340        0.26690
H          0.12640       -0.90900       -2.08890
H          2.59620       -0.40340       -2.34680
H          2.48130        0.85750       -1.03420
H          2.21160       -2.22010       -0.59310
H          0.86750       -1.46170        1.49690
H          2.89080       -0.50370        2.31560
