19
gdb 6878	2.69734	1.67215	1.42545	4.2762	76.69	-0.2758	0.0335	0.3093	1000.1125	0.1639	-327.947219	-327.938038	-327.937094	-327.980383	33.623
C         -0.10840        1.54640       -0.06920
C          0.03160        0.04490        0.04450
C          1.37580       -0.65640       -0.18330
C          2.55870        0.11990       -0.41350
N          3.51250        0.75150       -0.59320
C          0.70070       -0.65780        1.19610
C          1.32800        0.13580        2.32620
C          0.11530       -1.98850        1.63370
H          0.79470        2.07370        0.24440
H         -0.30900        1.83290       -1.10650
H         -0.94240        1.90370        0.54410
H         -0.80140       -0.50310       -0.38980
H          1.35690       -1.59030       -0.73590
H          1.83810        1.03620        1.98040
H          0.56260        0.43350        3.05160
H          2.06700       -0.47570        2.85490
H          0.88100       -2.62330        2.09330
H         -0.67780       -1.83440        2.37430
H         -0.31730       -2.53750        0.79160
