15
gdb 9201	6.35275	0.88274	0.82068	4.2476	65.2	-0.2488	0.0194	0.2683	1341.159	0.115953	-399.776753	-399.767311	-399.766367	-399.812743	31.747
O          0.05460        1.32460        0.12220
C         -0.01170       -0.07670        0.04990
C         -1.47730       -0.50570        0.18830
O         -2.29320        0.12190        0.82900
N         -1.76330       -1.68510       -0.44280
C         -3.05510       -2.33890       -0.28860
C         -2.92550       -3.74320        0.08880
C         -2.80630       -4.90450        0.37270
H          0.96850        1.57310        0.28550
H          0.40450       -0.46430       -0.89530
H          0.53850       -0.56430        0.87140
H         -1.04550       -2.16940       -0.95670
H         -3.59090       -1.76880        0.47730
H         -3.64280       -2.25930       -1.21340
H         -2.71350       -5.92830        0.63920
