19
gdb 7605	3.26728	1.57983	1.29703	3.4003	72.49	-0.2409	0.0353	0.2761	1021.3239	0.164208	-365.09812	-365.088823	-365.087878	-365.131734	34.176
C         -0.14920        1.46150        0.00730
C          0.08680       -0.03180       -0.01050
C          1.42250       -0.62560       -0.32650
C          0.86870       -0.75790        1.08760
C          1.53050        0.01910        2.20990
C          0.31870       -2.12970        1.39160
N          0.42410       -2.55350        2.68680
O         -0.18380       -2.83580        0.53220
H          0.73840        2.02160        0.31400
H         -0.42040        1.80980       -0.99540
H         -0.96820        1.73270        0.68280
H         -0.75180       -0.62030       -0.37020
H          1.44990       -1.53020       -0.92170
H          2.26580        0.04710       -0.45170
H          1.93650        0.96700        1.85130
H          0.82710        0.25900        3.01750
H          2.36810       -0.54190        2.64050
H          0.72610       -1.95530        3.43360
H         -0.00570       -3.43410        2.91710
