20
gdb 11022	3.93203	1.64898	1.39212	0.219	80.92	-0.2151	0.0317	0.2468	989.9167	0.177314	-311.883394	-311.875455	-311.874511	-311.915003	31.243
C          0.00840        1.50210        0.08170
C         -0.00710        0.00770        0.00530
C          0.00970       -0.75290       -1.09550
C         -0.04100       -2.23190       -0.78310
C          0.00220       -2.29060        0.75010
C         -0.76680       -3.38680        1.44790
C          1.23350       -1.71560        1.40420
C         -0.00260       -0.84780        1.23370
H          0.88930        1.86370        0.62720
H          0.01080        1.95690       -0.91270
H         -0.86820        1.87910        0.62430
H          0.06930       -0.37220       -2.10980
H         -0.96390       -2.69130       -1.16690
H          0.78800       -2.78760       -1.24170
H         -0.35710       -4.37560        1.20750
H         -0.72810       -3.27120        2.53590
H         -1.82150       -3.38510        1.14860
H          1.46340       -2.06880        2.40520
H          2.10150       -1.48000        0.79570
H         -0.54870       -0.53450        2.11870
