18
gdb 15351	5.52739	0.99016	0.93394	1.5942	74.68	-0.2481	0.0609	0.309	1276.1506	0.151304	-347.741901	-347.732911	-347.731967	-347.775956	32.336
C          0.40320        1.02770        0.47080
O         -0.33200        0.17500       -0.38440
C          0.45550       -0.43030       -1.36000
C          1.23890       -1.67480       -1.01090
C         -0.00430       -1.76100       -1.87340
C         -1.27440       -2.39000       -1.31690
C         -1.26720       -3.84720       -1.40040
C         -1.24860       -5.04630       -1.48230
H          1.19010        0.48120        1.00960
H          0.87370        1.85080       -0.08780
H         -0.30260        1.44730        1.19130
H          0.89700        0.26980       -2.07160
H          2.21050       -1.83690       -1.46420
H          1.14680       -2.03560        0.00850
H          0.15440       -1.94470       -2.93170
H         -1.40560       -2.07190       -0.27760
H         -2.14400       -1.99840       -1.86080
H         -1.23960       -6.10590       -1.54660
