17
gdb 1982	5.34125	1.56122	1.3846	2.6593	64.63	-0.2366	-0.0084	0.2282	914.8221	0.146878	-309.727603	-309.719627	-309.718683	-309.761177	28.05
C         -0.84670        0.90540       -0.13950
C          0.26670       -0.08980        0.12840
O          0.77070       -0.21400        1.22070
C          0.70490       -0.96960       -1.04310
C         -0.03750       -2.29720       -1.01150
C         -1.36700       -2.46320       -1.70750
C         -0.13640       -3.14790       -2.25060
H         -0.51060        1.65340       -0.86750
H         -1.71050        0.39780       -0.58290
H         -1.13930        1.40190        0.78650
H          0.52170       -0.46700       -1.99970
H          1.78100       -1.14450       -0.94190
H          0.07950       -2.83090       -0.07270
H         -2.12900       -3.06900       -1.23030
H         -1.75940       -1.62020       -2.26790
H          0.29480       -2.76000       -3.16770
H         -0.05320       -4.22370       -2.14230
