16
gdb 20192	3.36394	2.74418	2.0588	1.5444	62.41	-0.2161	0.07	0.2861	705.6998	0.13314	-383.69029	-383.68451	-383.683566	-383.71988	23.769
C         -0.03670        1.42010       -0.07040
C          1.36270        2.04340        0.02770
C          2.07330        1.47590        1.25170
O          1.16250        1.40850        2.39670
C          1.18710       -0.01700        2.34450
C          0.82430       -0.56180        0.98350
O         -0.04430       -0.00270        0.04640
C          2.21620       -0.05310        1.21870
H         -0.67240        1.85490        0.70950
H         -0.48880        1.63450       -1.04300
H          1.96250        1.82380       -0.86350
H          1.25580        3.13140        0.09910
H          2.98050        2.02040        1.52570
H          1.09600       -0.55320        3.28310
H          0.72880       -1.64370        0.95910
H          3.13320       -0.60840        1.06970
