15
gdb 13645	5.39709	0.92927	0.84348	5.789	82.1	-0.2635	-0.0375	0.226	1318.8429	0.118533	-325.510648	-325.502548	-325.501604	-325.543618	28.93
C         -0.11070        1.51540       -0.10620
C          0.01620        0.01440       -0.00020
C          1.32810       -0.67120       -0.21380
C          0.72490       -0.64130        1.19080
C          1.32830        0.14790        2.21080
C          1.83290        0.80960        3.09060
C          2.40670        1.55700        4.07590
N          2.89610        2.19590        4.91490
H          0.78760        2.01920        0.26140
H         -0.26160        1.81260       -1.14900
H         -0.96120        1.88300        0.47650
H         -0.86080       -0.53950       -0.32390
H          1.35470       -1.63400       -0.71100
H          2.20170       -0.05020       -0.37750
H          0.29470       -1.57320        1.54530
