15
gdb 20953	7.57764	1.16852	1.02536	2.7676	64.09	-0.2228	0.0002	0.223	1112.0023	0.119875	-395.973743	-395.966274	-395.96533	-396.006241	26.539
C         -0.04020        1.48570        0.01080
C          0.00050       -0.03010        0.00230
O         -1.35870       -0.49530        0.01070
C         -1.52520       -1.82430        0.00490
C         -2.72850       -2.49930        0.01080
N         -2.34080       -3.80050        0.00010
N         -1.01140       -3.93370       -0.00990
N         -0.50800       -2.72270       -0.00790
H          0.97820        1.88500        0.00480
H         -0.56610        1.86560       -0.86970
H         -0.55190        1.85610        0.90370
H          0.51090       -0.41810       -0.88650
H          0.52500       -0.42770        0.87870
H         -3.75450       -2.17890        0.02050
H         -2.91670       -4.62700       -0.00020
