12
gdb 1060	7.6326	2.07474	1.648	2.6712	51.28	-0.2485	-0.0038	0.2447	698.6762	0.09107	-360.53729	-360.530993	-360.530048	-360.568252	21.646
O          0.33160        0.99650       -0.68910
C         -0.00490        0.07560        0.31680
C         -1.40210       -0.42470        0.13290
N         -2.21050       -0.07300       -0.81490
C         -3.37380       -0.79590       -0.56610
C         -3.18970       -1.55250        0.53770
O         -1.91810       -1.32170        0.99980
H         -0.44270        1.07890       -1.26260
H          0.68890       -0.77960        0.30710
H          0.08460        0.53890        1.31190
H         -4.24330       -0.71310       -1.19790
H         -3.78520       -2.25210        1.09750
