17
gdb 1541	5.47018	1.27844	1.09729	2.9389	65.32	-0.2685	0.0292	0.2977	1073.8323	0.148373	-305.915175	-305.906665	-305.905721	-305.948239	29.747
C         -0.01660        1.57230        0.04170
C          0.01940        0.04220        0.01470
C          0.69020       -0.50510       -1.24900
C          0.69250       -2.04550       -1.30950
N         -0.67500       -2.56900       -1.37120
C          1.53680       -2.51350       -2.43190
N          2.15940       -2.89580       -3.32850
H          0.99240        1.99740       -0.00120
H         -0.57880        1.97090       -0.81000
H         -0.49380        1.93950        0.95520
H          0.55960       -0.32890        0.89590
H         -0.99480       -0.36250        0.08420
H          0.18210       -0.12270       -2.14440
H          1.72620       -0.15320       -1.31100
H          1.14650       -2.42680       -0.38620
H         -1.09990       -2.30820       -2.25730
H         -0.66380       -3.58410       -1.34580
