16
gdb 20797	3.1351	1.84315	1.24026	3.8653	67.98	-0.2092	-0.0008	0.2084	975.4717	0.130989	-379.917568	-379.90949	-379.908546	-379.950806	28.896
C          0.20530        1.60830       -0.20220
C         -0.10000        0.13060        0.09810
C          0.56160       -0.37170        1.33600
C          0.10030       -0.92290        2.49820
N         -1.20650       -1.27150        2.87430
C          1.29070       -1.16930        3.24070
N          2.36720       -0.79720        2.59370
O          1.91650       -0.30030        1.38470
H          1.28130        1.76360       -0.31320
H         -0.28480        1.92180       -1.12850
H         -0.14530        2.25440        0.60820
H         -1.18130       -0.01680        0.20040
H          0.20930       -0.48530       -0.75640
H         -1.91080       -0.80440        2.31740
H         -1.39030       -1.08520        3.85230
H          1.38730       -1.60550        4.22560
