22
gdb 6501	3.29717	1.42932	1.14711	1.0507	78.84	-0.2397	0.0823	0.322	1153.4867	0.197291	-350.195954	-350.186235	-350.185291	-350.230443	36.333
C         -0.16860        1.49780       -0.31240
C          0.04630        0.02410        0.03680
C          0.99780       -0.66080       -0.94290
O          0.62030       -0.08510        1.34740
C         -0.21350       -0.58090        2.35790
C         -1.28440        0.37340        2.84350
C         -0.48190       -2.06940        2.36500
C          0.49890       -1.45420        3.34620
H          0.78460        2.03490       -0.27380
H         -0.58180        1.60250       -1.32120
H         -0.85540        1.97670        0.39020
H         -0.91870       -0.50080        0.02440
H          1.98460       -0.18860       -0.89920
H          1.11710       -1.71870       -0.69310
H          0.62540       -0.58660       -1.96980
H         -2.01800        0.58940        2.05900
H         -1.82630       -0.05130        3.69370
H         -0.83490        1.32040        3.16020
H         -1.43680       -2.42470        2.73810
H         -0.06630       -2.65720        1.55480
H          1.55320       -1.62650        3.16440
H          0.21890       -1.38920        4.39190
