17
gdb 16151	4.44969	1.69962	1.44971	1.8284	67.52	-0.2416	0.0182	0.2598	903.2128	0.142995	-363.866052	-363.858839	-363.857895	-363.897508	27.508
C          0.00020        1.52760        0.23640
C         -0.01650        0.04400       -0.15300
C         -1.38580       -0.56970       -0.08040
C         -2.03790       -1.06590        1.18040
C         -1.78890       -2.03230        0.03500
N         -2.89070       -2.22200       -0.88290
C         -3.10240       -1.07770       -1.39660
O         -2.30230       -0.03810       -1.04600
H          1.01230        1.93740        0.17010
H         -0.64630        2.10910       -0.42690
H         -0.35700        1.66860        1.26160
H          0.37460       -0.08200       -1.16980
H          0.64360       -0.52680        0.51040
H         -1.38840       -1.16150        2.04400
H         -3.06290       -0.78490        1.39820
H         -1.10220       -2.86170        0.15550
H         -3.87530       -0.83410       -2.11530
