10
gdb 208	9.54923	3.68153	2.66498	1.6737	43.75	-0.2057	0.0107	0.2164	455.3577	0.075457	-301.373831	-301.368911	-301.367967	-301.401842	17.986
N          0.02650        1.39800        0.17020
C         -0.04150        0.01560        0.05130
C         -1.10840       -0.82780        0.00500
O         -0.61400       -2.11600       -0.03970
C          0.71740       -1.96220       -0.01770
N          1.12710       -0.73490        0.03450
H          0.91550        1.75450       -0.15390
H         -0.74310        1.89120       -0.25970
H         -2.17750       -0.71880        0.00120
H          1.31570       -2.85930       -0.04700
