20
gdb 18342	3.11281	2.0517	1.34866	0.2237	83.2	-0.2112	0.0302	0.2413	971.0964	0.178428	-311.865481	-311.857904	-311.85696	-311.897029	29.656
C         -0.06450        1.46920       -0.04650
C         -0.01170       -0.02060        0.06780
C         -1.00810       -0.89190        0.21210
C         -2.45740       -1.16520       -0.12800
C         -1.92680       -2.50350       -0.76890
C         -0.59860       -2.32920        0.05380
C          0.83140       -2.23200       -0.51390
C          1.29620       -0.81190       -0.05600
H          0.48050        1.95350        0.77480
H          0.40530        1.81730       -0.97580
H         -1.09400        1.83810       -0.02390
H         -3.08540       -1.36550        0.74730
H         -2.97660       -0.45190       -0.77360
H         -2.51740       -3.40520       -0.58800
H         -1.75560       -2.38980       -1.84280
H         -0.64500       -2.91500        0.98110
H          1.50260       -3.02860       -0.17940
H          0.80210       -2.26430       -1.60930
H          1.98100       -0.34800       -0.77650
H          1.84160       -0.85480        0.89830
