13
gdb 3805	7.67748	2.1277	1.68365	1.7856	55.6	-0.2154	0.0304	0.2458	708.4057	0.103681	-340.646768	-340.640444	-340.6395	-340.676948	22.759
C          0.00940        1.39680        0.05850
O          0.01110       -0.02640        0.01420
C          0.62520       -0.64120        1.03920
N          1.20060        0.01470        2.03940
N          1.68530       -0.97500        2.83230
C          1.42650       -2.21240        2.35210
C          0.73150       -2.04670        1.17480
H          1.03090        1.79160        0.05580
H         -0.52330        1.72390       -0.83580
H         -0.50000        1.76170        0.95670
H          2.17490       -0.72480        3.67260
H          1.74890       -3.10100        2.87200
H          0.35510       -2.80500        0.51000
