16
gdb 18882	3.45006	2.79517	2.53983	1.7581	61.77	-0.2536	0.087	0.3406	654.7954	0.134558	-383.740208	-383.73509	-383.734146	-383.769101	22.137
C         -0.03690        1.54420        0.07300
C          1.51100        1.50150       -0.00580
C          2.10700        1.06770        1.35610
C          1.76280       -0.43460        1.31110
O          0.34500       -0.57640        1.25690
C         -0.01190        0.00340       -0.00590
C          1.39770        0.08360       -0.69450
O          2.20980       -0.81980        0.02160
H         -0.49200        1.98230        0.96450
H         -0.48630        1.98330       -0.82320
H          2.04570        2.31110       -0.50100
H          3.19170        1.20100        1.39020
H          1.65360        1.57880        2.20830
H          2.16980       -1.08640        2.08250
H         -0.84880       -0.55330       -0.42870
H          1.50130       -0.02780       -1.77010
