19
gdb 2299	7.66503	1.19472	1.10233	1.3777	67.82	-0.2615	0.0808	0.3423	1088.3004	0.171885	-310.904631	-310.896679	-310.895734	-310.937138	28.752
O         -0.02090        1.44020       -0.06200
C          0.03180        0.02490        0.04700
C         -1.38190       -0.51580       -0.12810
C         -1.46080       -2.03190       -0.02060
C         -1.23680       -2.71870        1.36020
C         -2.37260       -3.71560        1.00630
C         -2.85670       -2.71520       -0.07760
H          0.86740        1.78460        0.06740
H          0.69250       -0.40910       -0.72210
H          0.43030       -0.28330        1.02730
H         -2.02750       -0.05370        0.62990
H         -1.76100       -0.18680       -1.10410
H         -0.80010       -2.49180       -0.76670
H         -0.24670       -3.12660        1.57950
H         -1.52720       -2.05350        2.18090
H         -1.98020       -4.63500        0.56200
H         -3.07520       -3.98780        1.79740
H         -3.63560       -2.04950        0.30900
H         -3.19030       -3.11690       -1.03780
