13
gdb 21019	6.78549	1.38614	1.15944	3.4406	69.86	-0.2417	-0.0163	0.2254	977.5849	0.096283	-357.63508	-357.627876	-357.626931	-357.66673	25.658
C          0.04670        1.40310        0.08410
N         -0.01080       -0.04080       -0.00330
C         -0.19650       -0.83000       -1.08360
N         -0.18410       -2.10050       -0.74010
C          0.02000       -2.04030        0.61310
N          0.13080       -0.80270        1.10010
C          0.10830       -3.18990        1.43960
C          0.18220       -4.16980        2.13200
H          1.01560        1.71640        0.47990
H         -0.09020        1.81980       -0.91510
H         -0.74340        1.77050        0.74330
H         -0.33330       -0.43600       -2.07980
H          0.24710       -5.03540        2.74360
