17
gdb 1186	4.31227	1.81143	1.78469	2.7111	60.58	-0.2517	-0.0256	0.2262	811.414	0.144209	-346.857623	-346.848665	-346.847721	-346.892209	30.81
C          0.01980        1.42430        0.15830
O          0.00850        0.02310       -0.00310
C          0.57920       -0.50450       -1.19800
C         -0.17550       -0.06170       -2.46280
C          2.08530       -0.21540       -1.31470
C          0.39090       -2.01820       -1.02920
O          0.74550       -2.83170       -1.84070
H          1.03750        1.83750        0.17830
H         -0.55180        1.94250       -0.62360
H         -0.45320        1.62720        1.12230
H          0.02140        0.98780       -2.69850
H          0.15230       -0.67190       -3.30800
H         -1.25360       -0.19500       -2.33320
H          2.59640       -0.45740       -0.37820
H          2.50810       -0.83130       -2.11220
H          2.27290        0.83500       -1.55420
H         -0.10900       -2.29840       -0.07700
