10
gdb 21847	8.41645	1.26662	1.11244	3.4536	49.88	-0.3036	-0.0519	0.2516	942.7491	0.060571	-450.604448	-450.598174	-450.59723	-450.635741	21.086
O          0.00950       -0.01040        0.08130
C         -0.01340        1.16330       -0.07640
O          1.10810        1.93270        0.19570
C          0.98860        3.26970        0.15270
N         -0.12420        3.91280        0.40660
O          0.26050        5.24960        0.24490
C          1.55690        5.23080       -0.06580
N          2.07560        4.04660       -0.14350
H         -0.85180        1.76920       -0.44860
H          2.04090        6.18360       -0.22190
