16
gdb 1981	6.30064	1.67762	1.44885	2.1399	61.95	-0.261	0.0337	0.2946	866.8092	0.135873	-325.770105	-325.762584	-325.76164	-325.801999	27.037
C         -0.12380        1.39570       -0.08580
C          0.00700       -0.09610        0.01690
N          0.51970       -0.66620        1.02520
O         -0.50400       -0.68390       -1.11140
C         -0.52580       -2.08670       -1.15630
C         -0.48480       -2.68780       -2.52290
C          0.70990       -2.82330       -1.60200
H          0.40090        1.76060       -0.97440
H         -1.17580        1.67770       -0.19350
H          0.29340        1.86100        0.80600
H          0.54440       -1.67980        0.91790
H         -1.16380       -2.53740       -0.39970
H         -1.09890       -3.55940       -2.71720
H         -0.39710       -1.99530       -3.35190
H          1.58180       -2.22070       -1.82840
H          0.92530       -3.78930       -1.15870
