15
gdb 17517	4.81823	1.78431	1.60089	2.6219	65.14	-0.2464	-0.0377	0.2087	805.8826	0.119404	-362.596312	-362.589911	-362.588967	-362.627092	24.444
O         -0.10640       -0.02800        0.04910
C         -0.04120        1.17690        0.01560
C          1.23170        1.94240       -0.04390
C          1.55430        3.04260        1.01830
C          2.43510        3.67070       -0.05780
C          1.69150        2.99990       -1.14680
N          3.09060        2.58930       -0.88010
C          2.60560        1.30070       -0.27880
H         -0.96380        1.80240        0.02310
H          0.68790        3.67590        1.22740
H          2.00360        2.69830        1.95540
H          2.93060        4.63210       -0.05300
H          1.30210        3.30730       -2.10830
H          3.16740        0.94760        0.59210
H          2.59390        0.53320       -1.05460
