16
gdb 10971	2.76174	2.47711	1.83496	2.6961	64.34	-0.2256	-0.0185	0.2071	787.4178	0.130512	-383.730215	-383.723175	-383.722231	-383.761214	26.909
C         -0.02780        1.54760        0.03030
C         -0.00870        0.04270       -0.01450
C          0.70370       -0.82210       -1.12420
C         -0.20020       -1.95590       -0.56640
O          0.27710       -2.12200        0.77600
C          0.42750       -0.75040        1.23160
C         -1.23920       -0.82140       -0.40680
O         -2.38900       -0.61570       -0.65000
H          0.97310        1.95580        0.20650
H         -0.40440        1.96190       -0.90950
H         -0.68150        1.90230        0.83410
H          0.45520       -0.51080       -2.14090
H          1.77710       -0.98170       -1.00090
H         -0.37010       -2.91710       -1.04310
H          1.47060       -0.56720        1.51700
H         -0.21760       -0.56840        2.09960
