19
gdb 16915	3.80811	1.73335	1.36529	1.2274	70.67	-0.2213	0.0757	0.2969	935.7246	0.167698	-365.040876	-365.033574	-365.032629	-365.072114	29.024
O         -0.09370        1.44280       -0.01760
C          0.02070        0.02640        0.01130
C          0.79880       -0.48290        1.22460
C          0.91850       -2.01480        1.16040
N         -0.32200       -2.74730        0.90470
C         -1.48160       -2.50240        1.75020
C         -1.46760       -2.02430        0.33500
C         -1.40600       -0.52430        0.03670
H          0.79530        1.81170       -0.03650
H          0.52840       -0.33290       -0.90080
H          1.80730       -0.04950        1.24280
H          0.29420       -0.14950        2.13980
H          1.60750       -2.27450        0.34580
H          1.35950       -2.40850        2.08270
H         -2.04270       -3.38810        2.03900
H         -1.42230       -1.73750        2.52360
H         -2.01080       -2.61290       -0.40110
H         -1.95670        0.04450        0.79470
H         -1.89120       -0.31720       -0.92090
