20
gdb 14988	4.33836	1.38367	1.12404	1.0049	77.6	-0.2384	0.0236	0.262	1108.8999	0.178178	-349.012516	-349.004411	-349.003466	-349.045137	30.483
C         -0.08460        1.39210        0.00760
O          0.08970       -0.00350        0.04260
C          0.68020       -0.55470       -1.13320
C          1.31750       -1.88740       -0.74020
C          1.73080       -2.68310       -1.98290
C          0.51320       -3.00860       -2.86170
C         -0.42190       -1.83440       -2.98800
C         -0.34210       -0.74040       -2.23160
H          0.87120        1.91790       -0.14890
H         -0.78330        1.71730       -0.77790
H         -0.49520        1.69050        0.97580
H          1.46940        0.13670       -1.48160
H          2.17240       -1.70410       -0.08190
H          0.57810       -2.45120       -0.15860
H          2.44980       -2.09400       -2.56730
H          2.24640       -3.60400       -1.69160
H          0.83650       -3.33700       -3.85770
H         -0.03980       -3.86190       -2.44030
H         -1.20360       -1.90930       -3.74130
H         -1.04680        0.07370       -2.38070
