18
gdb 17828	3.95825	1.61039	1.37998	3.3001	67.36	-0.2262	0.0668	0.2929	944.222	0.154282	-384.899212	-384.891573	-384.890629	-384.931612	28.763
O         -0.02770        1.42460        0.46850
C         -0.03320        0.05330        0.23270
C         -0.66450       -0.92690        1.18960
C         -1.27820       -0.69700       -0.18370
C         -2.59850        0.01550       -0.32170
C         -3.87380       -0.67110        0.22760
C         -3.99940        0.57190        1.12890
O         -2.75660        1.11360        0.62540
H         -0.91160        1.67170        0.77620
H          0.89970       -0.24220       -0.23760
H         -0.17260       -1.87150        1.39610
H         -1.18860       -0.49300        2.03560
H         -1.14960       -1.48410       -0.92380
H         -2.71300        0.39290       -1.34670
H         -4.68000       -0.82520       -0.49050
H         -3.67560       -1.60110        0.76250
H         -4.84230        1.23600        0.90470
H         -3.95910        0.39780        2.20980
