18
gdb 14049	4.55335	1.61482	1.51361	1.136	67.34	-0.247	0.0844	0.3314	902.4504	0.155162	-384.930212	-384.923067	-384.922123	-384.962	27.043
C          0.14360        1.41580       -0.49940
C          1.40290        1.62560        0.38590
C          1.31270        0.12990        0.79110
C         -0.15400        0.11450        0.29820
C          2.28360       -0.82410        0.07870
O          3.31690       -1.00600        1.03440
C          2.64120       -1.04360        2.26450
O          1.53710       -0.16170        2.16520
H         -0.61700        2.19780       -0.47680
H          0.39780        1.21060       -1.54290
H          2.32740        1.96810       -0.08620
H          1.18880        2.25650        1.25220
H         -0.83390        0.29470        1.13450
H         -0.49330       -0.76840       -0.25170
H          1.78770       -1.78150       -0.15120
H          2.72200       -0.41810       -0.83490
H          2.27940       -2.06390        2.48680
H          3.32400       -0.70880        3.05250
