12
gdb 730	9.10398	3.38084	2.50355	2.2444	51.05	-0.2321	0.028	0.2601	508.6768	0.098771	-265.437885	-265.43239	-265.431446	-265.467001	19.376
C         -0.02160        1.53930        0.02240
C          0.00200        0.04130       -0.00170
C         -0.05940       -0.79170       -1.10110
N         -0.00390       -2.06390       -0.63300
N          0.08920       -2.12900        0.70720
C          0.09260       -0.85580        1.09100
H          0.89260        1.95260        0.46310
H         -0.11340        1.94850       -0.98770
H         -0.86320        1.92200        0.61050
H         -0.13620       -0.57650       -2.15570
H         -0.02540       -2.91820       -1.16250
H          0.16050       -0.61690        2.14310
