20
gdb 14268	2.8248	2.54701	1.73623	0.2075	79.34	-0.2341	0.0376	0.2717	843.1304	0.180654	-311.875313	-311.868677	-311.867733	-311.90562	27.634
C          0.02940        1.48260       -0.35200
C          1.52960        1.49920        0.05950
C          1.27000        0.21100        0.89200
C         -0.02880       -0.01470        0.06600
C          0.13360       -0.99220       -1.09520
C          1.29180       -0.78210       -2.03540
C          2.24950        0.14830       -2.03940
C          2.49700        1.30380       -1.10500
H         -0.57930        2.11200        0.30300
H         -0.20990        1.72450       -1.39180
H          1.84850        2.37340        0.63510
H          2.03180       -0.57340        0.85620
H          1.05200        0.43980        1.93880
H         -0.90940       -0.30580        0.64650
H          0.20570       -2.01400       -0.69130
H         -0.79200       -0.99130       -1.69170
H          1.33290       -1.52290       -2.83360
H          2.98540        0.08250       -2.84040
H          2.52030        2.22650       -1.70540
H          3.51800        1.20390       -0.70500
