16
gdb 16993	3.78835	2.32988	2.11716	1.562	68.07	-0.2241	0.0092	0.2334	720.9277	0.132286	-346.549566	-346.543587	-346.542643	-346.57919	24.706
C         -0.00580        1.45070       -0.02480
C          1.27640        0.69450        0.03920
C          2.02580        0.40020        1.32530
C          1.01660       -0.47610        2.06900
C         -0.07910       -0.75610        1.34640
C         -0.03120       -0.07470        0.02450
C          0.49340       -0.63230       -1.30760
O          1.68630        0.20600       -1.24810
H         -0.33240        1.94710        0.88200
H         -0.26300        1.95400       -0.95200
H          2.95600       -0.14100        1.11340
H          2.30070        1.29590        1.89470
H          1.18480       -0.80310        3.09110
H         -0.90190       -1.37330        1.69140
H          0.76050       -1.69340       -1.25890
H         -0.09700       -0.43810       -2.21060
