17
gdb 16853	3.66832	2.02538	1.60854	3.2911	68.93	-0.2517	0.0311	0.2828	834.7162	0.14479	-363.869737	-363.863003	-363.862058	-363.900634	26.454
N         -0.18620        1.33760        0.11200
C         -0.02860        0.10260       -0.11950
C         -1.14440       -0.88900        0.11930
C         -1.17850       -2.01170       -0.90230
C         -0.74540       -1.76350       -2.32890
C          0.16410       -2.49480       -1.37320
C          1.35530       -1.78440       -0.77010
O          1.15320       -0.37470       -0.61510
H          0.68000        1.84250       -0.08930
H         -1.00910       -1.32500        1.11940
H         -2.07590       -0.31990        0.14840
H         -1.96150       -2.74630       -0.74410
H         -1.22410       -2.34440       -3.10890
H         -0.48170       -0.75350       -2.62290
H          0.31760       -3.55920       -1.52350
H          1.60260       -2.22630        0.20630
H          2.24150       -1.86860       -1.40620
