19
gdb 13643	3.51589	1.17062	1.06351	1.6678	79.96	-0.2209	0.0478	0.2687	1217.2514	0.163453	-327.869882	-327.860346	-327.859402	-327.905401	33.23
C          0.43120        0.54250       -1.09800
C          0.11500       -0.56630       -0.20790
C         -0.13350       -1.48280        0.53500
C         -0.47630       -2.56900        1.45930
N         -1.37300       -3.63920        0.99450
C         -2.11480       -3.49930       -0.25330
C         -1.01900       -4.50440       -0.13380
C          0.27240       -4.37960       -0.91190
H          1.42830        0.94540       -0.88870
H          0.41730        0.22750       -2.14720
H         -0.28740        1.36210       -0.98830
H          0.44110       -3.04470        1.82780
H         -0.95860       -2.12400        2.33930
H         -3.16010       -3.79740       -0.21760
H         -1.90810       -2.62410       -0.86610
H         -1.31340       -5.53830        0.04830
H          0.51700       -3.34140       -1.14280
H          1.11020       -4.81190       -0.35230
H          0.19190       -4.93200       -1.85460
