18
gdb 10884	2.76797	1.96801	1.6818	1.5392	68.34	-0.2344	0.0678	0.3022	889.821	0.151796	-384.879902	-384.871709	-384.870765	-384.911788	31.317
C         -0.08210        1.57720        0.00310
C         -0.03750        0.06150       -0.02240
C          1.22030       -0.64630       -0.58570
O          1.99260       -0.22010        0.59870
C          0.68720       -0.69160        1.14330
C          0.45890       -0.62510        2.61950
C          0.85360       -1.92690        0.22520
O         -0.30030       -2.67270       -0.04590
H          0.88310        1.98730        0.30890
H         -0.33110        1.97640       -0.98620
H         -0.84900        1.93470        0.69930
H         -0.98440       -0.39180       -0.32480
H          1.70460       -0.54390       -1.55810
H          0.44560        0.41230        2.96710
H         -0.50240       -1.08660        2.86650
H          1.24850       -1.16100        3.15520
H          1.72560       -2.54040        0.47800
H         -0.08050       -3.34980       -0.69300
