19
gdb 2552	2.85748	2.15814	1.43085	2.0769	63.93	-0.2497	0.0738	0.3234	922.4934	0.16985	-348.045786	-348.03679	-348.035846	-348.079296	31.52
C         -0.60080        1.08470        0.55260
C         -0.17980       -0.33210        0.15850
C          0.58710       -0.39370       -1.16320
C          0.99130       -1.82460       -1.54360
O         -0.14730       -2.62890       -1.78220
O         -0.27360        0.12300       -2.18500
C          0.39420        0.69710       -3.28900
H          0.27040        1.73580        0.69000
H         -1.23210        1.52820       -0.22130
H         -1.16240        1.08020        1.49160
H          0.45870       -0.76830        0.93640
H         -1.05520       -0.98440        0.07480
H          1.49120        0.23360       -1.09460
H          1.65340       -1.80230       -2.42490
H          1.55540       -2.28720       -0.72630
H         -0.73680       -2.08280       -2.31830
H          1.02690        1.54190       -2.97910
H          1.02440       -0.02560       -3.82700
H         -0.37420        1.06470       -3.97380
