13
gdb 5509	3.7136	2.0428	1.32896	5.6944	67.94	-0.2474	-0.038	0.2094	855.0565	0.097593	-357.694293	-357.687241	-357.686297	-357.726193	24.662
C          0.01230        1.45050        0.03240
N          0.01890       -0.00340        0.00100
C          0.07750       -0.79560       -1.11180
C          0.05910       -2.09590       -0.65880
N         -0.00920       -2.12900        0.70170
C         -0.03230       -0.85990        1.07500
C         -0.10090       -0.38500        2.41020
N         -0.15630        0.04690        3.48350
H          0.92580        1.84540       -0.42000
H         -0.85440        1.83920       -0.50870
H         -0.04060        1.78140        1.07010
H          0.12580       -0.37180       -2.10170
H          0.09160       -3.00260       -1.24320
