15
gdb 136	17.9608	2.23958	2.09578	0.9301	50.62	-0.2483	0.0931	0.3414	631.0818	0.136152	-233.547877	-233.541027	-233.540083	-233.578016	22.881
C         -0.00130        1.50940       -0.02110
C          0.01470       -0.01000       -0.01830
O          0.67560       -0.45710       -1.18250
C          0.74570       -1.86330       -1.27970
C          1.47380       -2.22660       -2.56300
H          1.01890        1.90350       -0.03570
H         -0.52530        1.88570       -0.90430
H         -0.50780        1.88810        0.87170
H          0.52880       -0.38930        0.88200
H         -1.01490       -0.40720        0.01270
H          1.27360       -2.28070       -0.40450
H         -0.26940       -2.29750       -1.27520
H          0.94230       -1.82720       -3.43150
H          2.48540       -1.81080       -2.56070
H          1.54450       -3.31350       -2.66790
