14
gdb 19505	3.53011	2.22141	1.92449	3.5417	62.31	-0.2455	-0.0443	0.2012	733.4741	0.107882	-378.699889	-378.693301	-378.692357	-378.730986	23.975
O         -0.20570        0.10140        0.35140
C          0.02020        1.16600       -0.16400
C          1.24790        1.99790        0.01460
C          1.50320        2.86340        1.21630
C          0.79350        2.59550        2.54470
N          1.21380        1.24260        2.94230
C          1.97190        0.80050        2.02750
N          2.34680        1.67990        0.94890
H         -0.69910        1.62580       -0.87980
H          1.59630        2.40430       -0.93530
H          1.95940        3.83280        1.04200
H          1.10680        3.32380        3.30100
H         -0.30020        2.63800        2.49230
H          2.41460       -0.18910        2.03940
