13
gdb 14821	2.4648	2.18744	1.28796	4.0797	58.38	-0.2674	-0.0563	0.2111	895.2267	0.094253	-398.587524	-398.579882	-398.578938	-398.620969	25.577
O         -0.56580        0.86680        0.90040
C          0.14310        0.78650       -0.06550
C          1.43890        1.57240       -0.20830
O          2.36270        0.95350       -1.11450
C          2.38780        2.09440       -1.99120
C          1.37830        2.86580       -1.09470
C          0.10510        3.21500       -1.70030
N         -0.90210        3.48420       -2.19940
H         -0.08630        0.13340       -0.93510
H          1.86460        1.74650        0.78570
H          3.38140        2.54990       -2.05120
H          2.02780        1.85480       -2.99620
H          1.79750        3.74090       -0.59630
