20
gdb 9272	4.35514	0.91654	0.79317	1.7997	78.34	-0.2493	0.0614	0.3107	1457.9633	0.17363	-348.968658	-348.958551	-348.957607	-349.004077	35.666
C         -0.11270        1.40490        0.05190
O          0.14210        0.02260       -0.03280
C          0.69740       -0.56200        1.14080
C         -0.35200       -0.74450        2.24070
C          1.31000       -1.89700        0.71630
C          2.41140       -1.73300       -0.34940
C          2.99000       -3.00400       -0.76570
C          3.44990       -4.06580       -1.09190
H          0.79040        1.96850        0.33500
H         -0.43460        1.73340       -0.93970
H         -0.90780        1.64760        0.77150
H          1.50090        0.09620        1.51790
H         -1.16580       -1.38420        1.88500
H          0.09610       -1.21120        3.12360
H         -0.77960        0.21210        2.55390
H          1.72170       -2.39910        1.59790
H          0.51720       -2.54120        0.32030
H          1.98600       -1.21210       -1.21340
H          3.20490       -1.08220        0.04240
H          3.86340       -4.99670       -1.39070
