22
gdb 9910	4.54523	0.88473	0.83846	1.7269	78.84	-0.2584	0.0875	0.3459	1485.9921	0.198303	-350.200035	-350.190266	-350.189322	-350.235102	35.268
C          0.20620        1.48820       -0.25530
C         -0.05760        0.00740        0.03010
C          0.76260       -0.53340        1.20620
C          0.49820       -2.01940        1.48700
C          1.37820       -2.60190        2.58000
C          1.19200       -2.06020        3.98170
C          1.94160       -3.94960        2.40450
O          2.75120       -2.79060        2.19160
H          1.26150        1.66290       -0.49240
H         -0.38900        1.84490       -1.10180
H         -0.04340        2.10950        0.61210
H         -1.12670       -0.14240        0.23320
H          0.16500       -0.58450       -0.86760
H          1.83250       -0.40050        1.00140
H          0.54200        0.06420        2.10020
H         -0.55590       -2.16540        1.76040
H          0.66720       -2.59130        0.56720
H          0.16550       -2.22330        4.32790
H          1.87620       -2.55270        4.67680
H          1.39140       -0.98480        4.01830
H          2.20110       -4.54650        3.27870
H          1.70310       -4.52500        1.51020
