17
gdb 19694	4.8244	1.69087	1.56875	1.5743	67.24	-0.2458	0.0685	0.3144	867.0925	0.143318	-363.789888	-363.782999	-363.782055	-363.821203	26.085
C         -0.20660        1.31080       -0.05920
O          0.15140       -0.04350        0.12040
C          0.69810       -0.63130       -1.02740
C          1.18480       -2.05280       -0.90380
C          0.04160       -2.97110       -1.18050
C         -1.20450       -2.14370       -1.44190
C         -0.22260       -1.18900       -2.14320
N          0.79330       -2.36230       -2.33250
H          0.65910        1.92150       -0.35890
H         -0.99370        1.43390       -0.81790
H         -0.58280        1.67720        0.89850
H          1.47990        0.00680       -1.46530
H          2.12430       -2.40040       -0.49080
H          0.11150       -4.03230       -0.96940
H         -1.85980       -2.63930       -2.16200
H         -1.78000       -1.76080       -0.59490
H         -0.51170       -0.58980       -3.00410
