17
gdb 1167	3.943	1.84396	1.74441	1.2828	65.86	-0.2602	0.0525	0.3127	820.2194	0.145036	-309.68579	-309.676922	-309.675978	-309.718145	32.249
C         -0.02160        1.55440        0.02300
C          0.00120        0.00890        0.02380
C          0.75010       -0.51130        1.27180
C         -1.44540       -0.53640        0.01560
O         -2.10350       -0.07550        1.18520
C          0.66260       -0.47810       -1.19050
C          1.19790       -0.88160       -2.18880
H          0.99610        1.95340        0.04180
H         -0.51920        1.93520       -0.87370
H         -0.56230        1.91530        0.90060
H          0.22550       -0.19330        2.17550
H          0.80280       -1.60400        1.26600
H          1.77150       -0.12230        1.29660
H         -1.95330       -0.18600       -0.89510
H         -1.41190       -1.63550       -0.01920
H         -3.00290       -0.41410        1.17810
H          1.67660       -1.23460       -3.06840
