16
gdb 18438	3.12426	2.01405	1.55534	1.7731	70.62	-0.2313	0.0461	0.2774	863.2565	0.128972	-346.52476	-346.517217	-346.516272	-346.556256	28.892
C         -0.27890        1.50640       -0.03720
C          0.03480        0.03050        0.06790
O          1.11160       -0.42960       -0.81320
C          1.69980       -1.14510        0.26230
C          2.22610       -0.22290        1.33650
C          2.81500        1.06230        1.09080
C          3.36710        2.11720        0.91810
C          0.73900       -0.58710        1.27980
H          0.58840        2.11880        0.20880
H         -0.60230        1.74500       -1.05560
H         -1.09900        1.75730        0.64450
H         -0.85920       -0.56500       -0.16170
H          2.08710       -2.13940        0.06940
H          2.71260       -0.78110        2.13540
H          3.84180        3.05220        0.75150
H          0.24740       -1.05280        2.12350
