13
gdb 3559	5.24295	3.08593	2.7267	2.1546	51.66	-0.2397	0.0736	0.3133	541.0817	0.102942	-344.379764	-344.37466	-344.373716	-344.408351	20.656
O          0.09050        1.40000       -0.00440
C         -0.00620        0.01000       -0.00230
C         -1.37830       -0.67500       -0.07300
C         -1.67460       -0.73950       -1.57300
O         -0.61550       -0.05760       -2.26340
C          0.29390       -0.72950       -1.33590
C         -0.80410       -1.78190       -0.96400
H         -0.27680        1.67900       -0.85480
H          0.59280       -0.38060        0.82370
H         -2.14560       -0.74770        0.68630
H         -2.65850       -0.77050       -2.02020
H          1.29310       -0.87670       -1.73870
H         -0.83760       -2.85960       -0.91210
