17
gdb 8072	3.66368	1.60974	1.37049	3.1848	64.69	-0.2533	0.0584	0.3117	934.7646	0.142644	-400.908589	-400.901046	-400.900102	-400.940504	28.911
O         -0.01100        1.38460       -0.17650
C          0.11110        0.01810        0.18530
C         -1.25460       -0.64170        0.15390
N         -1.95720       -0.68230       -1.23150
C         -1.10100       -1.92220       -1.53170
C         -1.53570       -2.14120       -0.05880
O         -1.19320       -3.13080        0.84360
C         -2.92770       -1.66240       -0.55810
H         -0.55170        1.40720       -0.97540
H          0.84790       -0.49790       -0.44540
H          0.49720       -0.00470        1.21000
H         -1.89750       -0.14740        0.88980
H         -1.54380       -2.56690       -2.29560
H         -0.05660       -1.71210       -1.75830
H         -1.48150       -3.98300        0.49780
H         -3.60100       -1.18970        0.16080
H         -3.46690       -2.29040       -1.27220
