20
gdb 17794	4.66177	1.33786	1.29648	1.585	74.71	-0.2414	0.0866	0.328	1046.1667	0.178382	-348.976191	-348.968442	-348.967498	-349.008882	28.898
C         -0.08510        1.44010       -0.13550
C          1.46640        1.46300       -0.11410
C          1.43670        0.11310        0.66140
C         -0.03320       -0.07770        0.18760
C          2.47190       -0.92830        0.30300
C          2.22100       -2.40380        0.69640
C          2.40080       -2.68340       -0.80720
O          2.46280       -1.27370       -1.10800
H         -0.51100        2.01670        0.69090
H         -0.58200        1.74170       -1.06050
H          1.88450        1.31990       -1.11420
H          1.96230        2.31300        0.36090
H          1.47990        0.28590        1.74390
H         -0.75700       -0.47200        0.90510
H         -0.06470       -0.67990       -0.72430
H          3.47120       -0.56970        0.59450
H          2.94650       -2.85960        1.37140
H          1.21170       -2.59140        1.06870
H          3.33530       -3.19570       -1.07170
H          1.56880       -3.17670       -1.32270
