16
gdb 2283	6.9546	1.43751	1.40762	3.6685	62.99	-0.2488	0.0311	0.2799	898.4806	0.13786	-325.794522	-325.78744	-325.786496	-325.826354	25.411
O          0.19010       -0.36050        0.44300
C         -0.01060        0.81280        0.21240
N          0.94140        1.72580       -0.12710
C          2.34260        1.41420       -0.26030
C          3.08480        1.78780       -1.57260
C          4.32670        2.13620       -0.70670
C          3.38760        2.25280        0.52530
H         -1.01860        1.27220        0.25590
H          0.64330        2.67470       -0.29410
H          2.43970        0.35060       -0.03860
H          3.17800        1.01670       -2.34050
H          2.65170        2.68520       -2.02790
H          5.00940        1.28730       -0.61710
H          4.90390        3.01930       -0.98580
H          3.04050        3.28230        0.66610
H          3.73040        1.86510        1.48710
