16
gdb 7214	3.65667	1.17763	0.92838	4.1494	69.9	-0.2328	0.025	0.2578	1231.4008	0.129265	-379.924935	-379.915276	-379.914332	-379.960395	33.183
C          0.25060        1.45100        0.15770
C          0.14610       -0.00040        0.09690
C          0.04120       -1.20050        0.06530
C         -0.08090       -2.65470        0.00320
N         -1.47990       -3.08740        0.04060
C          0.69220       -3.28340       -1.19970
N          1.82360       -2.63840       -1.57610
O          0.31070       -4.32900       -1.68890
H          1.12000        1.76240        0.74670
H          0.34860        1.89010       -0.84120
H         -0.63860        1.88650        0.62600
H          0.41780       -3.07840        0.88980
H         -2.00020       -2.54510       -0.64480
H         -1.48640       -4.04470       -0.31120
H          2.00100       -1.70100       -1.25570
H          2.34210       -2.99930       -2.36040
