18
gdb 14152	4.43227	1.49178	1.30224	2.4916	67.51	-0.2455	0.081	0.3266	985.7096	0.153789	-384.928827	-384.921116	-384.920171	-384.961059	28.777
C         -0.08180        1.52760       -0.09010
C         -0.02700        0.03200        0.08450
O          1.25010       -0.60250       -0.08760
C          0.64060       -0.63900        1.20640
C          1.36940        0.04090        2.36730
C          1.14400       -0.94790        3.52510
O          0.97800       -2.22030        2.91160
C          0.20010       -2.00020        1.74670
H          0.76490        2.01470        0.39910
H         -0.05600        1.78730       -1.15350
H         -1.01020        1.93020        0.32970
H         -0.84610       -0.50980       -0.39640
H          2.43040        0.11990        2.11510
H          0.99460        1.04300        2.58940
H          1.98520       -1.01610        4.21830
H          0.24210       -0.67630        4.09890
H         -0.87540       -1.98790        1.99430
H          0.39190       -2.80410        1.03230
