14
gdb 539	16.56594	1.24175	1.21031	3.2791	51.08	-0.2512	-0.0209	0.2303	920.2045	0.117582	-307.571937	-307.564452	-307.563508	-307.604035	24.408
O         -0.05620        1.46410        0.09910
C          0.02620        0.05170        0.01360
C         -1.39490       -0.48900       -0.08510
C         -1.43540       -2.02200       -0.17670
C         -2.85210       -2.54940       -0.14760
O         -3.33290       -3.28880       -0.96630
H          0.83710        1.81870        0.13010
H          0.60590       -0.26490       -0.86870
H          0.52320       -0.37670        0.90010
H         -1.95770       -0.14710        0.79200
H         -1.87850       -0.04540       -0.96250
H         -0.94500       -2.39270       -1.08170
H         -0.91240       -2.45040        0.69190
H         -3.45240       -2.19040        0.72220
