22
gdb 11394	4.9056	1.13538	1.00602	0.1799	84.43	-0.2341	0.0273	0.2614	1267.037	0.200728	-313.094593	-313.085828	-313.084883	-313.127936	33.204
C          0.09460        1.59900       -0.08840
C          0.02660        0.07080       -0.01260
C         -1.40150       -0.49200        0.07650
C         -1.46100       -2.04150        0.01230
C         -2.62500       -2.47850        0.94030
C         -2.37040       -3.79150        1.68880
C         -2.78790       -1.26600        1.83240
C         -2.13450       -0.20180        1.37100
H          1.12950        1.94480       -0.17410
H         -0.45460        1.97640       -0.95850
H         -0.33540        2.06930        0.80210
H          0.51320       -0.35510       -0.89990
H          0.60160       -0.28500        0.85240
H         -1.97670       -0.06250       -0.76040
H         -1.56540       -2.41940       -1.00880
H         -0.52180       -2.44620        0.41130
H         -3.54450       -2.60530        0.34700
H         -1.47170       -3.71720        2.31120
H         -3.21140       -4.04740        2.34240
H         -2.22820       -4.62260        0.98960
H         -3.40590       -1.28440        2.72500
H         -2.14400        0.78100        1.83020
