20
gdb 5798	3.47362	1.30754	1.21003	3.4214	71.49	-0.2512	-0.0248	0.2264	1120.2913	0.173263	-386.177263	-386.167492	-386.166547	-386.211551	35.968
C         -1.31360        0.94810       -2.76560
C         -1.35270       -0.42670       -2.13040
O         -2.28200       -1.18450       -2.33270
C         -0.18700       -0.78600       -1.21930
C          0.00520       -2.29860       -0.95000
C          0.38430       -3.04230       -2.24360
C          1.08840       -2.49510        0.11290
O         -1.18580       -2.84320       -0.39500
H         -1.08650        1.71530       -2.01770
H         -0.50840        0.98350       -3.50920
H         -2.26520        1.16490       -3.25230
H          0.73100       -0.33460       -1.61500
H         -0.38380       -0.27960       -0.26290
H          1.32920       -2.67350       -2.65830
H          0.49530       -4.10890       -2.03020
H         -0.39350       -2.92860       -3.00370
H          0.80530       -1.99290        1.04260
H          1.20510       -3.56130        0.32680
H          2.05270       -2.09990       -0.22130
H         -1.89190       -2.62260       -1.02000
