16
gdb 15900	2.84387	1.8601	1.2831	4.3156	61.26	-0.2492	-0.0299	0.2193	943.9613	0.129025	-420.87109	-420.8629	-420.861956	-420.904006	29.841
O         -0.24030        1.54400       -0.01640
C         -0.07940        0.18760       -0.38900
C         -1.34880       -0.59840       -0.05130
C         -1.38680       -2.15920       -0.07170
O         -0.06590       -2.65840       -0.05960
C         -2.06730       -2.16340        1.33960
C         -1.68350       -0.68070        1.44090
O         -1.54620        0.09670        2.34590
H         -0.44810        1.55150        0.92710
H          0.11170        0.17260       -1.46650
H          0.78270       -0.27720        0.10610
H         -2.19890       -0.17780       -0.60060
H         -1.97850       -2.60320       -0.88010
H         -0.10250       -3.61110        0.07140
H         -3.15330       -2.29820        1.29910
H         -1.64630       -2.83480        2.09240
