18
gdb 13420	5.91732	1.0313	0.9223	2.1975	64.64	-0.254	0.0796	0.3336	1245.7858	0.153754	-422.06961	-422.061073	-422.060129	-422.103904	29.503
O         -0.08830        1.45730       -0.14200
C          0.00120        0.04890        0.01650
C         -1.41910       -0.50240        0.01080
C         -1.45620       -2.01550        0.07110
O         -0.89010       -2.48080        1.27620
C         -1.44370       -3.77290        1.46260
C         -2.87120       -3.62900        0.89520
O         -2.79650       -2.48080        0.05550
H          0.79900        1.82190       -0.07680
H          0.58210       -0.40710       -0.80290
H          0.49730       -0.22140        0.95940
H         -1.97910       -0.10650        0.86310
H         -1.92820       -0.17960       -0.90290
H         -0.91150       -2.46180       -0.78490
H         -0.86930       -4.52860        0.90580
H         -1.41220       -4.01660        2.52650
H         -3.17890       -4.50990        0.31910
H         -3.61370       -3.44690        1.68070
