17
gdb 19141	3.36296	1.72631	1.3885	2.2588	69.79	-0.2292	-0.0278	0.2014	934.7353	0.140986	-363.819809	-363.812042	-363.811098	-363.851952	29.021
O         -0.11280        0.12150        0.84140
C          0.05440        0.96380       -0.01130
C          1.23210        1.87290       -0.06850
C          1.81670        2.27220        1.28460
C          2.54190        1.27960        0.44600
N          1.38060        2.85990       -1.10830
C          0.94620        2.57630       -2.47230
C          0.21890        3.57130       -1.63170
H         -0.69800        1.09550       -0.81870
H          2.20370        3.28240        1.33500
H          1.28400        1.91010        2.15600
H          2.50570        0.23830        0.74330
H          3.42960        1.60480       -0.08260
H          1.62330        2.90860       -3.25490
H          0.44730        1.63260       -2.68190
H         -0.77180        3.30010       -1.27300
H          0.36010        4.63640       -1.79500
