18
gdb 6525	3.13968	1.6531	1.35339	4.268	69.57	-0.2401	-0.0109	0.2291	975.4653	0.15032	-384.943519	-384.934358	-384.933414	-384.976687	33.678
C         -0.12070        1.56230        0.09510
C         -0.00640        0.05740       -0.00510
O         -1.20130       -0.55690       -0.42580
C          1.27490       -0.60260       -0.40590
C          0.76300       -0.74270        1.04040
C          1.49720       -0.06430        2.17860
C          0.22400       -2.09340        1.37800
O          0.33910       -2.60030        2.46850
H          0.81270        2.03050        0.41310
H         -0.38060        1.97820       -0.88610
H         -0.91130        1.84040        0.79840
H         -1.34780       -0.31370       -1.34690
H          1.20660       -1.47990       -1.04140
H          2.16450        0.00160       -0.54940
H          2.02340        0.83410        1.84960
H          0.80780        0.21370        2.98140
H          2.22950       -0.75340        2.60740
H         -0.28410       -2.62030        0.54700
