16
gdb 11878	4.82365	1.54098	1.31713	3.0892	65.04	-0.2424	0.0332	0.2757	924.2336	0.132709	-379.939838	-379.932815	-379.931871	-379.971337	26.738
O          0.01150       -0.03430        0.10690
C         -0.03360        1.17530        0.11090
C         -1.29000        2.05750        0.09350
C         -0.77100        3.45780        0.37930
C         -1.60000        4.67820        0.30230
N         -1.13530        4.17350        1.61100
C          0.72230        3.44040        0.03760
N          1.03940        2.02490        0.11230
H         -1.74730        1.97670       -0.89970
H         -2.02180        1.69770        0.82120
H         -1.15810        5.62330       -0.00420
H         -2.64870        4.56600        0.03790
H         -1.89550        3.69040        2.08450
H          0.91370        3.84710       -0.96610
H          1.28580        4.03020        0.76630
H          1.97420        1.65790        0.03110
