13
gdb 20342	5.26244	2.11997	1.52545	3.2067	64.87	-0.2225	-0.0215	0.201	763.3916	0.098036	-361.456598	-361.451069	-361.450125	-361.48607	21.87
C         -0.06460        1.49930        0.01080
C          1.40840        1.90170       -0.00110
C          2.21740        0.82240       -0.01490
C          1.38380       -0.38120       -0.01350
C          0.07930        0.01300        0.00130
O         -0.75660       -1.01760        0.00370
N          0.02840       -2.19430       -0.01050
C          1.28440       -1.79470       -0.02020
H         -0.58970        1.87270        0.89860
H         -0.60670        1.88240       -0.86250
H          1.72390        2.93630        0.00160
H          3.29880        0.84040       -0.02520
H          2.05510       -2.55270       -0.03180
