16
gdb 20898	4.72913	1.41545	1.17407	2.3112	67.75	-0.2124	0.029	0.2413	1023.5059	0.131893	-379.949666	-379.942052	-379.941107	-379.982088	28.102
C         -0.04680        1.51940       -0.09890
C         -0.06740        0.00580        0.11950
N         -1.40040       -0.55790        0.02360
C         -1.91860       -1.32860       -0.95900
C         -3.23960       -1.57790       -0.64380
C         -3.42080       -0.89320        0.57490
O         -4.56500       -0.84690        1.28990
N         -2.32090       -0.27460        0.98350
H          0.97160        1.90320        0.01550
H         -0.40320        1.77460       -1.10130
H         -0.69070        2.01330        0.63230
H          0.54920       -0.50570       -0.62530
H          0.33370       -0.23980        1.10830
H         -1.31690       -1.64310       -1.79800
H         -3.95760       -2.16310       -1.19220
H         -4.38420       -0.31370        2.07400
