15
gdb 2151	3.721	3.03359	1.93442	1.0376	57.79	-0.2527	0.0085	0.2612	672.6549	0.126112	-345.658313	-345.651648	-345.650704	-345.688964	25.052
O          0.03460        1.39830       -0.00080
C          0.04560       -0.01670        0.08090
C          0.53800       -0.41510        1.48910
C         -0.71170       -0.87100        2.20020
C         -1.75940       -0.97230        1.38480
C         -1.42030       -0.58030       -0.03040
O         -2.31990        0.36670       -0.60190
H         -0.51550        1.61390       -0.76480
H          0.68610       -0.43690       -0.70670
H          1.28090       -1.22120        1.44120
H          1.02530        0.43630        1.97620
H         -0.71990       -1.11260        3.25790
H         -2.75570       -1.29900        1.66160
H         -1.45690       -1.43880       -0.71110
H         -2.44080        1.05720        0.06110
