16
gdb 21009	3.66254	1.76118	1.20759	0.4839	68.93	-0.2024	0.0289	0.2312	983.0556	0.130173	-379.943101	-379.934561	-379.933617	-379.97645	29.83
C         -0.06760        1.40010        0.09380
N         -0.06210       -0.04020       -0.02180
C          0.02430       -0.77870       -1.16350
C          0.09720       -2.09440       -0.75870
O          0.17980       -3.17410       -1.58800
C          0.05450       -2.06120        0.65440
C          0.08750       -3.21560        1.60450
N         -0.03720       -0.79970        1.08540
H          0.94340        1.81640        0.01400
H         -0.69280        1.83510       -0.69040
H         -0.48030        1.65550        1.07010
H          0.02180       -0.33260       -2.14420
H          0.21210       -3.96980       -1.04870
H          1.00630       -3.80690        1.50170
H          0.04130       -2.84600        2.63090
H         -0.75970       -3.89710        1.45490
