22
gdb 14984	4.14545	1.31384	1.07234	0.2479	84.26	-0.2342	0.03	0.2642	1185.2534	0.202208	-313.097851	-313.089559	-313.088615	-313.130517	32.055
C         -0.15480        1.57500       -0.03730
C          0.01070        0.05250       -0.00430
C          0.78400       -0.48620        1.21820
C          0.63510       -2.01330        1.33660
C          1.59400       -2.59950        2.37890
C          3.05410       -2.32700        1.99110
C          3.24740       -0.91280        1.50910
C          2.24430       -0.09530        1.18830
H          0.80760        2.09360       -0.09040
H         -0.74010        1.88590       -0.90840
H         -0.67490        1.93460        0.85770
H         -0.98390       -0.41210       -0.01040
H          0.51250       -0.28710       -0.91990
H          0.32600       -0.02840        2.11130
H         -0.40340       -2.26490        1.58140
H          0.84460       -2.46700        0.35770
H          1.38820       -2.14040        3.35460
H          1.42570       -3.67550        2.49610
H          3.71830       -2.52320        2.84260
H          3.37480       -3.02820        1.20570
H          4.27280       -0.55710        1.43040
H          2.47330        0.92020        0.87330
