14
gdb 11202	5.03976	1.37319	1.20282	2.6835	64.65	-0.2496	-0.0553	0.1943	960.4716	0.106588	-382.581994	-382.574811	-382.573867	-382.614383	25.508
O         -0.61830        0.78180        0.70120
C          0.12020        0.99460       -0.22430
C          1.30040        1.95130       -0.18810
C          1.23940        3.04370       -1.28400
C          1.42910        4.37410       -0.52680
O          1.51030        5.46410       -1.03860
C          1.48760        4.04650        0.91690
C          1.41010        2.72560        1.10420
H         -0.01750        0.48290       -1.20410
H          2.19120        1.32050       -0.33550
H          2.00720        2.93800       -2.05360
H          0.27240        3.06900       -1.79820
H          1.58070        4.80910        1.67930
H          1.41140        2.21880        2.06140
