17
gdb 3978	4.90959	0.83965	0.81195	0.8255	76.77	-0.2431	0.012	0.255	1454.7174	0.138461	-363.806149	-363.796006	-363.795062	-363.843823	33.775
C          0.13650        1.47360        0.13880
C          0.06880        0.01980        0.09170
C          0.02300       -1.18240        0.04450
C         -0.05330       -2.64120       -0.01130
C         -1.47820       -3.16290       -0.05760
C         -2.41780       -2.83290        1.06670
N         -1.75740       -3.88490       -1.07330
O         -3.07370       -4.37300       -1.03300
H          0.95360        1.85270       -0.48480
H         -0.79270        1.92670       -0.22410
H          0.30450        1.83440        1.15960
H          0.47530       -3.02360       -0.89030
H          0.44920       -3.06460        0.87120
H         -3.45000       -2.81180        0.71460
H         -2.35290       -3.59590        1.85240
H         -2.15660       -1.86910        1.50940
H         -3.13800       -4.84070       -1.87210
