14
gdb 3579	4.87032	3.11486	2.61615	1.4949	56.31	-0.2159	0.0466	0.2625	573.5809	0.112597	-324.460304	-324.454343	-324.453399	-324.489819	22.873
C         -0.16210        1.57860       -0.06290
N          0.16250        0.15310        0.03960
C          1.37670       -0.52000       -0.30320
C          2.68690        0.17060        0.25460
O          2.32560        1.38650        0.91720
C          2.15110        0.14620        1.60950
C          0.82230       -0.54530        1.09880
H          0.52630        2.10010       -0.73130
H         -1.17890        1.67230       -0.46260
H         -0.12200        2.07070        0.91120
H          1.38480       -1.29170       -1.06590
H          3.69880        0.07010       -0.11810
H          2.63580        0.02180        2.56990
H          0.31630       -1.34050        1.63630
