13
gdb 3721	7.18421	2.00323	1.72739	1.9727	54.73	-0.2855	-0.0226	0.2629	724.09	0.1029	-340.647224	-340.640879	-340.639935	-340.678449	21.87
C         -0.71710        1.15680       -0.17970
C          0.51360        0.27610        0.09990
C          1.05340       -0.36700       -1.13110
N          1.08270       -1.63070       -1.44380
C          1.67200       -1.60080       -2.68370
N          1.99070       -0.41610       -3.12450
O          1.57600        0.42290       -2.08110
H         -0.47380        1.95750       -0.88270
H         -1.53280        0.56490       -0.60450
H         -1.07200        1.61090        0.74910
H          1.30560        0.88240        0.55400
H          0.26770       -0.52580        0.79940
H          1.86810       -2.48650       -3.27050
