14
gdb 19815	4.38448	2.0488	1.8668	4.2555	59.57	-0.2584	0.0041	0.2625	732.2021	0.108565	-382.518384	-382.512577	-382.511632	-382.548238	23.064
O         -0.08670        0.03770        0.01150
C          0.01060        1.22090        0.03180
O         -1.02230        2.14420        0.09540
C         -0.08240        3.27060        0.02780
C          0.39190        3.85260        1.37420
C          0.51650        2.77900        2.41800
C          1.57670        2.87120        1.36250
C          1.10160        2.30020       -0.00540
H         -0.33730        3.95830       -0.77540
H          0.36960        4.90550        1.62310
H          0.82190        3.14100        3.39400
H         -0.18570        1.95210        2.45070
H          2.61670        3.05220        1.59810
H          1.83330        2.26460       -0.80880
