19
gdb 4035	3.80794	1.07339	1.01141	1.7157	71.44	-0.2452	0.0095	0.2547	1248.7816	0.16182	-402.163413	-402.153172	-402.152228	-402.198982	35.823
C         -0.16240        1.52090       -0.02950
C         -0.13860       -0.00720       -0.12360
C          0.79710       -0.52050       -1.22980
O          2.13790       -0.06680       -1.04730
C          0.75020       -2.03000       -1.37000
C          1.33300       -2.91770       -0.30430
N          0.20210       -2.46630       -2.43810
O          0.19150       -3.87070       -2.47950
H          0.84300        1.91730        0.13490
H         -0.54360        1.96290       -0.95620
H         -0.80410        1.85500        0.79100
H          0.17180       -0.43720        0.83990
H         -1.14580       -0.39310       -0.32020
H          0.47930       -0.10100       -2.18890
H          2.40740       -0.28000       -0.14720
H          1.72220       -2.34620        0.54120
H          0.57800       -3.61890        0.06420
H          2.14500       -3.52330       -0.71890
H         -0.22870       -4.04430       -3.32840
