17
gdb 11419	3.77517	1.50509	1.21432	5.1054	64.22	-0.2591	0.0517	0.3107	1015.7408	0.143574	-401.058747	-401.050956	-401.050012	-401.091302	28.386
C          0.04600        1.54980        0.06450
C         -0.01030        0.02020        0.04030
C         -1.43380       -0.54380       -0.08140
C         -1.49200       -2.08660       -0.00030
O         -1.81830       -2.38320        1.36220
C         -2.34650       -1.26860        1.95790
O         -2.77370       -1.25300        3.07790
N         -2.29880       -0.23510        1.04680
H          1.07990        1.90270        0.11360
H         -0.41060        1.97910       -0.83440
H         -0.47570        1.96150        0.93520
H          0.57140       -0.35350       -0.81210
H          0.45580       -0.39030        0.94480
H         -1.88410       -0.19200       -1.01710
H         -2.27270       -2.49690       -0.65010
H         -0.53800       -2.56140       -0.24070
H         -2.41390        0.70010        1.40080
