11
gdb 916	5.80101	2.9884	1.97234	4.7952	56.62	-0.2368	-0.069	0.1678	597.0822	0.080364	-339.455981	-339.45062	-339.449675	-339.485369	19.747
N         -0.03100        1.31740        0.00990
C         -0.04920        0.05480        0.00310
O          1.19490       -0.65020       -0.00790
C          1.21030       -1.98600       -0.01530
C          0.08270       -2.72000       -0.01270
C         -1.14600       -1.97450       -0.00140
N         -1.21670       -0.68410        0.00600
H          0.92820        1.66160        0.00610
H          2.22020       -2.38270       -0.02330
H          0.10650       -3.80000       -0.01870
H         -2.09380       -2.51300        0.00130
