10
gdb 21876	4.23264	2.07251	1.39127	3.4265	51.74	-0.2711	-0.0997	0.1714	773.4256	0.062395	-446.789041	-446.783153	-446.782209	-446.819332	21.482
O          0.00420        1.28390        0.00810
C         -0.03670       -0.04050        0.00080
N         -1.18990       -0.62630        0.00400
C         -1.18060       -2.00160       -0.00370
O         -2.13190       -2.73740       -0.00240
N          0.13570       -2.56080       -0.01420
N          1.27640       -1.90040       -0.01690
N          1.23140       -0.62580       -0.00960
H          0.93740        1.54410        0.00430
H          0.22440       -3.56930       -0.02030
