12
gdb 23717	5.81585	1.51347	1.20095	0.5959	59.45	-0.2326	-0.033	0.1996	885.016	0.085318	-422.691216	-422.685236	-422.684292	-422.721305	23.195
O          0.08660        1.33800        0.09760
C          0.06710       -0.01180        0.05800
N          0.09450       -0.59150       -1.13530
C          0.07560       -1.92810       -1.18880
C          0.02880       -2.70840       -0.04730
F          0.01150       -4.04170       -0.15020
C          2.23800       -2.10250        1.20480
C          0.01940       -0.71980        1.26530
H          0.11920        1.63150       -0.82320
H          0.09830       -2.39420       -2.16960
H         -0.03670       -2.71160        2.10070
H         -0.00110       -0.18570        2.20680
