17
gdb 7106	6.30296	0.83581	0.75941	2.0851	67.61	-0.2872	-0.0254	0.2618	1470.0608	0.13989	-401.034163	-401.025048	-401.024104	-401.068956	31.101
C         -0.13490        1.52800        0.09900
C          0.04110        0.01510       -0.05210
C         -1.29430       -0.72820       -0.00860
C         -1.18530       -2.21690       -0.16610
N         -0.09720       -2.84520       -0.26570
O         -2.46130       -2.78940       -0.22700
C         -2.69620       -3.96000        0.42960
O         -3.71700       -4.56010        0.30720
H          0.83120        2.03990        0.06490
H         -0.75810        1.94000       -0.70260
H         -0.61230        1.78270        1.05190
H          0.54730       -0.21550       -0.99530
H          0.69300       -0.37240        0.73740
H         -1.82370       -0.53040        0.93390
H         -1.97220       -0.36630       -0.79340
H         -0.22140       -3.84530       -0.41950
H         -1.85940       -4.25130        1.08740
