16
gdb 8660	2.41822	1.86203	1.41325	1.3229	67.95	-0.247	-0.0419	0.2051	955.344	0.125317	-383.695207	-383.685703	-383.684759	-383.729458	33.127
C         -0.30920        1.30950        0.27910
O         -0.14410       -0.08850        0.09770
C          0.59950       -0.48050       -1.05890
C          0.06580        0.09240       -2.37670
C          2.07590       -0.07160       -0.81460
O          2.75680        0.53860       -1.59180
C          0.59050       -1.94460       -1.07640
C          0.65530       -3.14400       -1.10760
H          0.64190        1.85780        0.22670
H         -1.00190        1.74340       -0.45270
H         -0.73020        1.43580        1.27880
H          0.19340        1.17600       -2.41230
H          0.62230       -0.33390       -3.21310
H         -0.99150       -0.15890       -2.48640
H          2.43960       -0.39120        0.18550
H          0.68930       -4.20550       -1.13480
