18
gdb 4772	5.76952	1.20283	1.07402	0.6057	75.79	-0.2072	0.0279	0.2351	1159.436	0.153713	-347.850078	-347.841761	-347.840816	-347.883184	30.202
C          0.06900        1.54080        0.24600
C         -0.01870        0.04230       -0.09220
C         -1.41730       -0.46170       -0.19470
C         -2.15770       -0.98070       -1.21090
C         -3.46360       -1.27380       -0.68000
C         -4.63280       -1.86010       -1.40810
C         -3.40530       -0.90320        0.62560
O         -2.17410       -0.40860        0.94040
H          1.11270        1.85900        0.32900
H         -0.41350        2.14450       -0.52870
H         -0.42930        1.75210        1.19590
H          0.48070       -0.15890       -1.04540
H          0.52190       -0.53150        0.67200
H         -1.81980       -1.14180       -2.22390
H         -4.39640       -2.84830       -1.81930
H         -5.49510       -1.97380       -0.74500
H         -4.94090       -1.22860       -2.24940
H         -4.12160       -0.92700        1.43100
