11
gdb 4738	6.9559	1.37898	1.15083	0.4111	64.69	-0.2222	-0.0417	0.1805	936.9924	0.071947	-397.394043	-397.387419	-397.386474	-397.424738	24.708
O          0.11930        1.33880       -0.07930
C          0.06880       -0.00330       -0.07280
C         -0.03870       -0.84510       -1.13760
O         -0.05180       -2.12020       -0.63790
C          0.04880       -1.97380        0.70350
N          0.12380       -0.72580        1.09100
C          0.06130       -3.13420        1.50210
C          0.07170       -4.12690        2.18120
H          0.19530        1.62050        0.84080
H         -0.10970       -0.72780       -2.20280
H          0.08120       -5.00090        2.78490
