11
gdb 766	9.17106	3.66535	2.6282	1.7832	47.71	-0.2006	0.0347	0.2353	471.2006	0.088014	-281.489179	-281.48403	-281.483086	-281.517285	19.284
N         -0.02860        1.37800        0.16560
C          0.05080       -0.01060        0.04750
N         -1.05160       -0.75480        0.01560
N         -0.58830       -2.03040       -0.01860
C          0.76000       -2.10220       -0.02390
C          1.22530       -0.80570        0.02080
H          0.66220        1.86470       -0.38940
H         -0.95770        1.71380       -0.05480
H         -1.25020       -2.78520       -0.04230
H          1.27920       -3.04740       -0.05350
H          2.25180       -0.47810        0.04490
