15
gdb 13927	3.70878	1.79484	1.48229	4.0841	61.61	-0.2498	0.0209	0.2706	856.6418	0.119519	-399.790369	-399.783098	-399.782154	-399.822482	25.872
O         -0.14130        0.01780        0.01550
C         -0.08790        1.21790        0.02470
N         -1.03880        2.20890        0.05150
C         -0.09070        3.32930        0.04250
C          1.04370        2.27070        0.01170
C          2.20300        2.22070        1.02300
O          3.18590        2.23050       -0.03030
C          2.16280        2.23790       -1.04460
H         -2.04690        2.17370        0.07030
H         -0.15410        3.96590       -0.84640
H         -0.11950        3.95100        0.94370
H          2.29160        3.09260        1.68350
H          2.24760        1.30210        1.62050
H          2.18390        1.32940       -1.65850
H          2.22600        3.12080       -1.69340
