13
gdb 629	6.6552	3.12376	2.30532	3.0813	51.15	-0.2455	0.0075	0.253	562.6793	0.107159	-286.492357	-286.485815	-286.484871	-286.52312	22.044
C         -0.06980        1.44230        0.02210
C         -0.03160       -0.07290        0.06290
O          0.93500       -0.73130       -0.24710
N         -1.19680       -0.65690        0.57270
C         -2.49030       -0.63560       -0.08920
C         -1.71180       -1.90820        0.07300
H          0.92490        1.82040       -0.21250
H         -0.77310        1.78560       -0.74450
H         -0.41140        1.84450        0.97980
H         -3.34970       -0.43100        0.54370
H         -2.54460       -0.20800       -1.08800
H         -1.22430       -2.32420       -0.80450
H         -2.01390       -2.63200        0.82420
