17
gdb 12710	2.92594	2.26102	1.70816	2.6264	69.08	-0.2572	0.0303	0.2875	834.5251	0.142672	-363.855319	-363.847996	-363.847052	-363.886693	27.976
C         -0.09260        1.51590        0.02560
C          0.02870        0.01110        0.01010
C         -1.25290       -0.87060        0.20910
C         -0.50840       -1.72640        1.28050
C          0.76640       -0.89670        1.04450
O          1.58660       -1.45200       -0.03270
C          0.98630       -0.63090       -0.97120
N          1.20820       -0.49580       -2.19810
H          0.88970        1.99610        0.07330
H         -0.58520        1.86090       -0.88950
H         -0.68610        1.85670        0.88030
H         -2.08590       -0.29590        0.62010
H         -1.59880       -1.39330       -0.68420
H         -0.91660       -1.60790        2.28720
H         -0.39140       -2.79090        1.06950
H          1.38450       -0.55610        1.87530
H          1.95410       -1.11790       -2.51450
