19
gdb 15233	2.30414	1.92165	1.33183	1.0703	78.36	-0.2212	0.0356	0.2568	1025.6134	0.163033	-327.867591	-327.858379	-327.857435	-327.901224	33.817
C         -1.47420        1.45280        1.97000
C         -1.41940       -0.04060        1.65720
N         -0.07970       -0.55880        1.93390
C          0.33860       -1.85060        1.40910
C         -0.55240       -2.75080        0.58260
C          0.92860       -0.57730        0.85300
C          0.61240       -0.14760       -0.48090
C          0.36950        0.24230       -1.59370
H         -0.80850        2.01050        1.30410
H         -2.48970        1.83710        1.83260
H         -1.16340        1.64250        3.00120
H         -2.11030       -0.58780        2.30930
H         -1.74550       -0.20820        0.62140
H          0.97640       -2.39270        2.10760
H         -1.04580       -2.21740       -0.23130
H          0.04610       -3.55340        0.14000
H         -1.31910       -3.21740        1.21070
H          1.92300       -0.28550        1.18540
H          0.16070        0.58250       -2.57780
