12
gdb 1216	7.59637	1.3251	1.21334	4.1819	52.05	-0.2712	0.0164	0.2877	916.4423	0.090585	-356.743821	-356.736361	-356.735416	-356.77621	25.53
N         -0.01060        1.32490        0.04870
C          0.00880       -0.05370       -0.06310
O          0.94990       -0.67510       -0.51740
N         -1.13290       -0.66710        0.42220
C         -1.19460       -2.11010        0.48100
C         -2.44500       -2.63480       -0.08390
N         -3.44020       -3.04440       -0.50340
H          0.72600        1.76870       -0.47830
H         -0.90150        1.79520       -0.00610
H         -1.77030       -0.14200        0.99820
H         -0.33940       -2.47850       -0.09410
H         -1.08950       -2.49270        1.50500
