13
gdb 19104	5.28874	2.19734	2.10079	3.2286	59.81	-0.2409	-0.0294	0.2115	660.0696	0.097162	-361.372166	-361.366986	-361.366042	-361.401318	21.039
O          0.01520       -0.01570        0.09760
C         -0.01100        1.17630        0.07980
C         -1.08180        2.27440       -0.01880
C         -0.82060        3.23280        1.14400
C          0.74480        3.26710        1.11680
C         -0.07330        4.17950        0.26340
N         -0.06930        3.11930       -0.84400
C          1.00700        2.31980       -0.05490
H         -2.08430        2.11040       -0.40750
H         -1.38630        3.40630        2.04900
H          1.33350        3.46590        2.00170
H         -0.09940        5.25070        0.11560
H          2.00160        2.19920       -0.47820
