17
gdb 4109	3.32305	1.69838	1.24401	1.0914	67.32	-0.2458	0.003	0.2487	979.0962	0.141746	-400.96759	-400.959559	-400.958615	-401.00015	29.645
C          0.11290        1.45040       -0.15710
C         -0.11500       -0.03950        0.11160
O          0.28360       -0.85470       -0.99220
C          1.61030       -1.32160       -0.76340
C          1.70990       -1.56070        0.75060
C          0.70520       -0.56820        1.27770
N          0.50630       -0.17530        2.46840
O          1.38770       -0.80150        3.36750
H          1.17240        1.66450       -0.32880
H         -0.45210        1.76160       -1.04000
H         -0.21750        2.03700        0.70490
H         -1.18360       -0.22080        0.27090
H          1.75060       -2.22380       -1.36360
H          2.35210       -0.57570       -1.08830
H          1.40110       -2.57710        1.02120
H          2.70540       -1.39900        1.17040
H          1.12840       -0.41400        4.21040
