16
gdb 16408	3.59588	2.23876	1.77376	4.5629	64.02	-0.2584	0.0173	0.2756	771.7153	0.133559	-383.770925	-383.764775	-383.763831	-383.801123	24.337
O         -0.00620        0.01180       -0.29950
C          0.02570        1.16700        0.02030
O         -1.11810        1.78580        0.42900
C         -1.09130        3.17540        0.81590
C          0.29740        3.78810        0.70490
C          0.90800        3.39770       -0.66650
C          1.26180        2.04150        0.01450
C          1.32240        2.82550        1.35970
H         -1.80510        3.69790        0.16870
H         -1.46210        3.22430        1.84610
H          0.27520        4.83790        1.00590
H          0.25340        3.38160       -1.54200
H          1.80990        3.97110       -0.89200
H          2.11760        1.46110       -0.32450
H          2.29830        3.29670        1.49610
H          1.03420        2.30340        2.27600
