21
gdb 1106	3.05647	2.20295	1.84239	1.4315	69.98	-0.259	0.068	0.327	848.8521	0.192044	-312.131841	-312.122522	-312.121578	-312.164423	35.279
C          0.11520        1.54410       -0.01850
C         -0.02120        0.02150        0.05870
O          0.71330       -0.48100        1.17650
C         -1.47920       -0.52950        0.03910
C         -2.21470       -0.02950       -1.21770
C         -1.40270       -2.06770       -0.00490
C         -2.25480       -0.09990        1.29800
H          1.17490        1.81160        0.01470
H         -0.31010        1.94920       -0.94020
H         -0.38200        2.03800        0.82480
H          0.49110       -0.41050       -0.81100
H          0.43640        0.01320        1.95510
H         -1.63810       -0.24220       -2.12560
H         -3.18260       -0.53220       -1.31820
H         -2.40670        1.04720       -1.18470
H         -0.82000       -2.45060        0.83580
H         -2.40450       -2.50900        0.03300
H         -0.92260       -2.40970       -0.92900
H         -2.35660        0.98780        1.37100
H         -3.26590       -0.52010        1.28390
H         -1.76850       -0.46280        2.20980
