16
gdb 12459	3.62886	1.942	1.33038	3.0371	68.05	-0.2126	0.0163	0.229	897.0684	0.134495	-379.974048	-379.967039	-379.966095	-380.005338	26.783
O          0.00050       -0.15830       -0.08520
C         -0.01630        1.06050       -0.07500
N         -1.09490        1.78510        0.36790
C         -1.45100        3.13050       -0.07050
C         -0.59980        4.21990        0.58470
C          0.85320        4.13930        0.21820
C          1.52080        3.08490       -0.25880
N          1.09340        1.77920       -0.51410
H         -1.85870        1.16850        0.59850
H         -1.38000        3.21810       -1.16310
H         -2.50040        3.27980        0.19640
H         -0.99400        5.19800        0.27820
H         -0.73390        4.16680        1.67390
H          1.43470        5.04790        0.33670
H          2.57030        3.20620       -0.50790
H          1.80780        1.13790       -0.82140
