17
gdb 8277	5.36618	1.09903	1.00013	1.2934	70.85	-0.2284	0.0388	0.2673	1163.831	0.140714	-363.789262	-363.780998	-363.780054	-363.822222	30.552
O          0.09180        1.46870       -0.01140
C          0.07550        0.06280       -0.02890
C          0.23600       -0.61680        1.35760
N         -1.23790       -0.70870        1.42630
C         -1.82110       -1.87010        2.07510
C         -3.27950       -1.86800        1.99770
C         -4.47800       -1.87450        1.91610
C         -1.33550       -0.58310       -0.04470
H         -0.53120        1.75470        0.66690
H          0.76910       -0.24500       -0.81170
H          0.73410       -1.59860        1.28410
H          0.70800       -0.02960        2.15260
H         -1.44010       -2.81700        1.64030
H         -1.50970       -1.86610        3.12800
H         -5.53800       -1.87790        1.85290
H         -2.16540        0.02980       -0.40900
H         -1.34350       -1.55450       -0.56630
