22
gdb 7640	3.63797	1.31304	1.24457	1.4679	78.29	-0.2395	0.0835	0.3231	1134.9415	0.198903	-350.205323	-350.195974	-350.19503	-350.239334	34.635
C         -0.13160        1.51740       -0.09990
C         -0.07720       -0.01640       -0.01260
C         -1.49130       -0.60990        0.01390
C          0.78520       -0.56050       -1.15190
C          0.94660       -2.07710       -1.39440
C          0.51990       -1.74450       -2.84110
C         -0.64400       -2.48940       -3.46070
O          0.18060       -0.38790       -2.45970
H          0.87130        1.95540       -0.05610
H         -0.59250        1.82940       -1.04270
H         -0.71970        1.93880        0.72130
H          0.43950       -0.29220        0.91900
H         -2.00550       -0.40800       -0.93010
H         -1.48410       -1.69270        0.17230
H         -2.07760       -0.16560        0.82420
H          1.76140       -0.05150       -1.12370
H          1.94700       -2.48950       -1.25460
H          0.22260       -2.69840       -0.86290
H          1.37250       -1.73530       -3.53650
H         -1.49060       -2.53610       -2.76930
H         -0.97470       -1.98840       -4.37620
H         -0.34710       -3.51180       -3.71980
