14
gdb 5426	3.44362	1.87335	1.21626	5.925	68.78	-0.2008	-0.0169	0.1839	920.9895	0.108703	-378.770454	-378.763148	-378.762204	-378.801846	27.196
N          0.09110        1.37460        0.15720
C         -0.00660       -0.00920        0.04220
C         -1.10850       -0.86690        0.02130
C         -2.49730       -0.47540       -0.00830
O         -3.44770       -1.23300       -0.03040
C         -0.58830       -2.20860       -0.00790
C          0.76860       -2.12770       -0.01690
N          1.11570       -0.77770        0.01420
H          0.69590        1.80300       -0.53400
H         -0.81260        1.82740        0.14550
H         -2.66960        0.63040       -0.01690
H         -1.18980       -3.10250       -0.03630
H          1.53390       -2.88530       -0.04870
H          2.05030       -0.41940        0.11470
