18
gdb 20201	3.65428	2.53685	1.98118	0.5592	76.62	-0.2204	-0.0001	0.2203	750.2823	0.157357	-310.633429	-310.627565	-310.626621	-310.662917	25.053
C          0.11690        1.56090        0.21310
C          1.63570        1.93580       -0.01070
C          2.17600        0.62730        0.51090
C          2.29440        0.36620        1.82110
C          1.48280       -0.85680        2.21110
C          0.67850       -1.10320        0.93190
C          0.04310        0.01690        0.03990
C          1.43220       -0.48830       -0.20320
H         -0.20040        1.89940        1.20460
H         -0.53760        2.04030       -0.52380
H          1.83750        2.11480       -1.07180
H          1.94390        2.81250        0.56330
H          2.60270        1.10130        2.55850
H          2.06230       -1.75270        2.47880
H          0.86500       -0.61630        3.08690
H          0.19940       -2.07080        0.80650
H         -0.78460       -0.35720       -0.55610
H          1.80170       -0.97720       -1.09770
