16
gdb 14722	11.2262	0.5859	0.56272	3.9672	74.71	-0.2676	-0.0619	0.2058	1898.4616	0.126977	-383.705202	-383.695644	-383.6947	-383.741101	30.962
C         -0.05230        1.52130        0.01110
C         -0.02710        0.00340        0.00250
O         -1.36610       -0.46410        0.01250
C         -1.44580       -1.87030        0.00570
C         -2.83550       -2.29960        0.01640
C         -3.97570       -2.69610        0.02490
C         -5.35130       -3.12020        0.03520
O         -5.71300       -4.27450        0.03360
H          0.96740        1.91720        0.00370
H         -0.57970        1.90050       -0.86830
H         -0.56310        1.89080        0.90440
H          0.49770       -0.37350       -0.89140
H          0.51440       -0.38320        0.88230
H         -0.94710       -2.29280       -0.88490
H         -0.93040       -2.30230        0.88220
H         -6.07880       -2.28330        0.04510
