20
gdb 12516	3.2971	1.73287	1.23378	1.505	77.32	-0.2319	0.0174	0.2493	1029.8826	0.178351	-349.012205	-349.004247	-349.003303	-349.044516	30.485
C         -0.20750        1.52380       -0.00590
C          0.01190        0.03310        0.00710
C         -0.03430       -0.68250       -1.12020
C          0.14790       -2.17860       -1.24690
O          1.33580       -2.70880       -0.68180
C          1.31710       -2.84270        0.72380
C          1.46550       -1.52380        1.48440
C          0.26100       -0.57530        1.37680
H          0.67470        2.05580        0.37400
H         -0.42530        1.89740       -1.00970
H         -1.04130        1.80270        0.65210
H         -0.24100       -0.15970       -2.05210
H         -0.72590       -2.70450       -0.81980
H          0.19040       -2.44470       -2.30740
H          0.39130       -3.35430        1.04340
H          2.15680       -3.50230        0.96800
H          1.62570       -1.76810        2.54280
H          2.37010       -1.01620        1.13060
H          0.39090        0.23460        2.10300
H         -0.64400       -1.11420        1.69790
