20
gdb 7696	3.37625	2.09664	1.84614	1.4532	73.97	-0.2337	0.0903	0.324	843.0306	0.177845	-348.992128	-348.984715	-348.983771	-349.023135	30.187
C         -0.04330        1.50830       -0.01660
C          0.01800       -0.01980        0.06660
C         -1.39760       -0.58120       -0.09700
O          0.87800       -0.53620       -0.99840
C          1.90300       -1.22860       -0.26670
C          1.12060       -2.02880        0.80150
C          0.80180       -0.57460        1.28420
C          2.27520       -0.24730        0.87000
H          0.93730        1.97350        0.09150
H         -0.44890        1.80760       -0.98790
H         -0.70190        1.90830        0.76190
H         -1.80240       -0.28060       -1.06810
H         -1.42440       -1.67060       -0.04870
H         -2.05900       -0.18570        0.68150
H          2.61800       -1.66530       -0.96260
H          0.31070       -2.67420        0.46100
H          1.76820       -2.56350        1.49840
H          0.40390       -0.35480        2.27480
H          3.00320       -0.65790        1.57160
H          2.54430        0.77230        0.59350
