17
gdb 18765	3.7955	2.31986	1.73927	0.796	67.55	-0.2121	0.0594	0.2715	781.6949	0.143993	-363.792774	-363.786411	-363.785467	-363.823068	25.626
C         -0.01060        1.48470        0.04500
C          1.55680        1.56100       -0.00840
C          1.57910        0.05510        0.19140
O          2.55110       -0.86630       -0.27060
C          2.24860       -1.76590        0.83180
C          1.31490       -0.72470        1.50500
N         -0.14370       -0.77430        1.24360
C          0.04920       -0.07520       -0.05820
H         -0.44330        1.81430        0.99080
H         -0.51980        1.98680       -0.77970
H          1.91450        1.83220       -1.00660
H          2.07280        2.18130        0.72910
H          1.75330       -2.68510        0.49380
H          3.15680       -2.02350        1.38800
H          1.60100       -0.40060        2.50810
H         -0.51910       -1.71450        1.16240
H         -0.39590       -0.53100       -0.94440
