19
gdb 8272	5.76221	0.97692	0.90081	4.1291	76.21	-0.3002	0.0361	0.3364	1298.9231	0.1657	-327.943004	-327.934581	-327.933637	-327.976341	30.926
C          0.01920        1.59180        0.14580
C          0.06760        0.07640        0.03520
C          1.11220       -0.57930       -0.91380
C          1.31480       -1.69400        0.14690
C          2.73720       -2.21920        0.37260
C          2.81680       -3.16170        1.48800
N          2.85550       -3.90340        2.37360
C          0.68190       -0.74870        1.20250
H          1.00870        2.00100        0.38010
H         -0.31760        2.04940       -0.79110
H         -0.66850        1.91030        0.93710
H         -0.93020       -0.31100       -0.19960
H          0.79090       -0.87720       -1.91500
H          2.00650        0.04830       -1.00680
H          0.64870       -2.53860       -0.05360
H          3.10800       -2.71820       -0.53100
H          3.41870       -1.38390        0.57430
H          1.45070       -0.17200        1.72990
H          0.00800       -1.18590        1.94200
