18
gdb 8810	3.88251	1.26138	0.96994	1.859	72.25	-0.2392	-0.0478	0.1914	1218.351	0.151559	-381.154886	-381.145198	-381.144254	-381.189705	33.936
C         -0.00670        1.51390        0.06150
C          0.09720       -0.00760        0.00020
C          0.78800       -0.50570       -1.24870
O          1.23980        0.23490       -2.09920
C          0.91030       -2.00790       -1.43710
N          1.65650       -2.34590       -2.53310
N          0.35330       -2.78230       -0.58340
C          0.49050       -4.21060       -0.79580
H          0.98230        1.97870        0.02910
H         -0.57600        1.90510       -0.78610
H         -0.50480        1.82540        0.98370
H          0.64100       -0.41520        0.86120
H         -0.88380       -0.49290        0.05400
H          1.86220       -1.58230       -3.16070
H          1.57430       -3.26650       -2.92820
H          1.54570       -4.52300       -0.84230
H          0.01150       -4.75280        0.02270
H          0.01280       -4.53910       -1.73400
