13
gdb 5029	3.50432	2.36297	1.41312	2.6547	65.27	-0.2086	-0.0262	0.1824	805.45	0.098352	-394.808279	-394.801798	-394.800853	-394.838714	25.066
N          0.04620        1.38360        0.01740
C         -0.02280        0.01030        0.03070
C         -1.15280       -0.72300        0.09500
O         -1.12100       -2.09900        0.16960
C          0.08580       -2.67860        0.17760
N          1.22200       -2.10240        0.10660
C          1.26660       -0.70510        0.00810
N          2.34630       -0.02810       -0.10960
H          0.95670        1.71400       -0.27710
H         -0.74110        1.89050       -0.35510
H         -2.16450       -0.34400        0.10580
H         -0.00250       -3.75830        0.25290
H          3.14790       -0.65970       -0.11860
