11
gdb 21969	5.44078	1.74353	1.3204	4.8973	59.02	-0.2676	-0.0884	0.1793	826.767	0.072826	-434.476794	-434.470778	-434.469834	-434.507435	21.629
O         -0.03970        0.01730        0.00480
N         -0.04430        1.24590        0.00810
O          0.93970        1.97260        0.00320
C         -1.33510        1.86190        0.01880
C         -2.58100        1.31030        0.02650
C         -3.47560        2.41890        0.03560
C         -2.69330        3.53740        0.03270
O         -1.38030        3.20980        0.02250
H         -2.80670        0.25750        0.02550
H         -4.55340        2.38950        0.04330
H         -2.90760        4.59340        0.03680
