17
gdb 20270	4.44184	2.63875	2.37676	1.553	69.76	-0.2223	0.0791	0.3014	664.5563	0.146562	-326.658506	-326.653519	-326.652575	-326.687171	22.157
C         -0.03740        1.59130        0.04920
C          1.50400        1.43290        0.02660
C          1.88170        0.73930        1.34420
C          2.96860       -0.27620        0.93430
N          1.90660       -1.00230        0.15930
C          1.31680        0.04930       -0.74430
C         -0.05180        0.05410       -0.00600
C          0.86730       -0.44820        1.13740
H         -0.48990        2.09360        0.91060
H         -0.42290        2.03110       -0.87520
H          2.15950        2.22470       -0.33480
H          1.93400        1.34870        2.24780
H          3.82650        0.07540        0.35030
H          3.31540       -0.90900        1.75660
H          1.47730       -0.02230       -1.81840
H         -0.91480       -0.54310       -0.29350
H          0.55140       -1.07340        1.97180
