20
gdb 7461	4.091	1.10536	1.02322	0.1533	84.54	-0.2362	0.0592	0.2954	1268.4172	0.175662	-311.843876	-311.834522	-311.833578	-311.87918	33.598
C          0.20130        1.58510       -0.27040
C          0.11080        0.13800       -0.13390
C          0.03490       -1.05970       -0.02000
C         -0.06170       -2.50370        0.12270
C          0.88790       -3.21770       -0.85200
C          0.06250       -3.06920        1.58430
C         -1.16140       -3.98330        1.31770
C         -1.51070       -3.11220        0.08320
H          0.94230        1.87040       -1.02570
H         -0.75920        2.01890       -0.57110
H          0.49440        2.05800        0.67380
H          1.92570       -2.92590       -0.66450
H          0.81260       -4.30480       -0.74200
H          0.64400       -2.96100       -1.88740
H          1.01340       -3.54740        1.83410
H         -0.15000       -2.29780        2.32730
H         -0.87340       -5.00190        1.04500
H         -1.91320       -4.04300        2.10720
H         -2.26480       -2.35560        0.30940
H         -1.79070       -3.62420       -0.84140
