15
gdb 13326	5.22426	1.47771	1.17577	0.5971	65.4	-0.2141	-0.0129	0.2012	974.0122	0.12192	-396.027483	-396.0204	-396.019456	-396.05906	25.821
O          0.41060        2.17310       -1.25670
C          0.11380        1.66710       -0.19490
N          0.96070        0.97800        0.62810
C          2.30970        0.69790        0.40370
N          2.94610       -0.13300        1.14140
C          4.32710       -0.11540        0.62690
C          4.26190        0.63010       -0.73790
N          2.99650        1.35630       -0.58990
H         -0.90640        1.71600        0.22700
H          0.58460        0.53850        1.45550
H          4.97440        0.41820        1.33600
H          4.71950       -1.13140        0.53090
H          5.09980        1.31370       -0.89650
H          4.22410       -0.07220       -1.58250
H          2.46890        1.70080       -1.38010
