17
gdb 304	5.05749	3.02686	2.58542	1.1514	60.96	-0.219	0.0873	0.3063	612.8334	0.153033	-251.732828	-251.725481	-251.724536	-251.763141	26.999
C         -0.19620        1.46630       -0.04920
N          0.01740        0.03320        0.07140
C          1.35760       -0.48300       -0.19330
C          0.78990       -0.52420        1.18930
C          1.38830        0.37250        2.25850
C          0.23220       -1.83030        1.72210
H          0.68040        2.08840        0.18930
H         -0.48900        1.68880       -1.08080
H         -1.01970        1.77000        0.60570
H          1.41440       -1.38190       -0.80370
H          2.15200        0.23960       -0.38230
H          1.84580        1.27510        1.84850
H          0.62630        0.67640        2.98620
H          2.16570       -0.16920        2.80790
H          1.02010       -2.43130        2.19050
H         -0.54020       -1.64460        2.47770
H         -0.21930       -2.41150        0.91490
