15
gdb 1477	7.59045	1.32755	1.19194	2.0606	59.11	-0.2614	0.0396	0.3009	957.6244	0.122878	-345.614442	-345.606301	-345.605357	-345.646736	29.243
O          0.11680        1.40850       -0.10420
C          0.10730        0.00110       -0.01450
C         -1.31750       -0.53510        0.08900
O         -1.98260       -0.06350       -1.07430
C         -1.36010       -2.07550        0.17230
C         -2.73350       -2.56360        0.15740
C         -3.88930       -2.89540        0.12400
H         -0.52990        1.63040       -0.78530
H          0.59640       -0.46540       -0.88630
H          0.67740       -0.27170        0.87980
H         -1.78660       -0.11680        0.99250
H         -2.89450       -0.37560       -1.04090
H         -0.80910       -2.49400       -0.67910
H         -0.84980       -2.40760        1.08490
H         -4.89880       -3.22480        0.10720
