17
gdb 10151	3.01875	1.30009	0.98847	1.3727	72.1	-0.2287	-0.0344	0.1943	1197.6898	0.139006	-363.821284	-363.811876	-363.810932	-363.855984	32.74
C          0.00930        1.56580        0.01210
C          0.02270        0.04190        0.06890
N         -1.33390       -0.48470       -0.11420
C         -1.42130       -1.93100       -0.03540
C         -1.29540       -2.50640        1.39680
O         -1.25840       -1.81510        2.37830
C         -2.68250       -2.44920       -0.57340
C         -3.73340       -2.90100       -0.94200
H          1.02430        1.96420        0.09920
H         -0.42570        1.91370       -0.92910
H         -0.58210        1.98300        0.83490
H          0.64130       -0.35210       -0.74840
H          0.48620       -0.28880        1.01200
H         -1.94430       -0.09000        0.59640
H         -0.59380       -2.36110       -0.62070
H         -1.27090       -3.61670        1.45260
H         -4.65680       -3.28600       -1.29880
