17
gdb 18759	2.80693	2.46528	1.64367	2.0549	62.91	-0.22	0.0395	0.2595	814.3735	0.143576	-400.938995	-400.931975	-400.93103	-400.970195	27.648
O          0.34950        1.05490       -0.82780
C          0.05920       -0.13900       -0.15710
C          0.16650       -0.20150        1.39570
N         -1.21090       -0.78690        1.51330
C         -2.24490        0.26070        1.78820
C         -2.50430        0.48730        0.28380
O         -2.24050        1.82770       -0.12060
C         -1.41790       -0.59380        0.01570
H         -0.29010        1.70820       -0.51150
H          0.65760       -0.91630       -0.64030
H          0.94010       -0.86430        1.79420
H          0.27260        0.78320        1.86610
H         -3.09880       -0.13720        2.34400
H         -1.86700        1.14800        2.30680
H         -3.50440        0.18710       -0.05000
H         -2.48010        1.91420       -1.05000
H         -1.74440       -1.45980       -0.56750
