12
gdb 4411	4.08546	2.12209	1.39664	4.0922	61.33	-0.2382	-0.0452	0.193	805.6176	0.086069	-410.889922	-410.883181	-410.882237	-410.921079	24.366
N          0.05670        1.30020        0.00730
C         -0.03250       -0.03610        0.00100
N         -1.18810       -0.64450        0.00420
C         -1.07890       -2.00460       -0.00320
N          0.00340       -2.72180       -0.01270
C          1.20700       -2.05330       -0.01610
N          2.37760       -2.52320       -0.02440
O          1.15940       -0.63190       -0.00850
H          0.95560        1.74920        0.00450
H         -0.79160        1.83830        0.01450
H         -2.02690       -2.53970       -0.00060
H          2.31010       -3.53970       -0.02880
