18
gdb 11546	6.36471	1.02916	0.94117	3.4563	70.02	-0.238	0.0624	0.3004	1265.5088	0.153704	-381.142043	-381.132936	-381.131991	-381.176746	31.86
C          0.11070        1.33600        0.15740
N         -0.25170        0.03060       -0.36320
C          0.67550       -0.70460       -1.07810
O          1.74440       -0.25920       -1.45150
N          0.26370       -2.00740       -1.33780
C          1.02290       -2.80470       -2.25730
C          2.20810       -3.56630       -1.73490
C          0.94140       -4.29990       -2.10070
H          0.84850        1.76930       -0.51820
H         -0.77070        1.98290        0.19470
H          0.55470        1.28700        1.16100
H         -0.93930       -0.48920        0.15910
H         -0.73460       -2.15970       -1.35680
H          1.10670       -2.40990       -3.26760
H          3.07190       -3.65920       -2.38250
H          2.43730       -3.45280       -0.68250
H          0.33290       -4.68270       -1.28860
H          0.92580       -4.90490       -3.00000
