18
gdb 19708	5.20216	1.73105	1.56481	1.6751	70.82	-0.2494	0.0783	0.3277	854.921	0.156419	-347.7672	-347.760817	-347.759872	-347.797319	26.309
O          0.20440        1.39660       -0.19060
C          0.04880        0.01010       -0.04070
C          0.03070       -0.65260        1.35960
C         -1.44770       -0.16950        1.56140
C         -2.21090       -1.22320        2.36670
C         -1.62770       -2.51330        1.72580
C         -0.67160       -1.88890        0.70850
C         -1.35480       -0.63690        0.06720
H         -0.37400        1.84470        0.43470
H          0.72520       -0.44190       -0.77130
H          0.82290       -0.67160        2.11140
H         -1.65340        0.87830        1.79470
H         -2.00390       -1.15120        3.43920
H         -3.29420       -1.13650        2.23550
H         -1.10270       -3.14540        2.44890
H         -2.39310       -3.13080        1.24510
H         -0.08330       -2.55070        0.06970
H         -2.15990       -0.63760       -0.67110
