20
gdb 14151	4.23116	1.48373	1.28385	1.7593	74.76	-0.2502	0.0811	0.3313	1032.4001	0.177608	-349.012883	-349.004907	-349.003963	-349.045444	30.484
C          0.10200        1.48600       -0.30190
C          0.04400        0.01120        0.00430
O          1.29300       -0.68630        0.09930
C          0.47460       -0.58210        1.27790
C          1.06640        0.19800        2.46130
C          0.77340       -0.67240        3.70470
C          0.63890       -2.10130        3.14580
C         -0.11220       -1.88420        1.82200
H          0.87670        1.98330        0.28610
H          0.32360        1.64700       -1.36220
H         -0.86140        1.96160       -0.08640
H         -0.71570       -0.53660       -0.56030
H          2.14350        0.30060        2.29530
H          0.65580        1.20760        2.55210
H          1.54490       -0.58080        4.47380
H         -0.17560       -0.36720        4.16170
H          1.63250       -2.51960        2.94500
H          0.12580       -2.78350        3.82900
H         -1.18400       -1.75280        2.02040
H         -0.00130       -2.69640        1.09990
