16
gdb 20092	3.46606	1.57045	1.41187	3.167	60.19	-0.2383	0.0456	0.2839	922.8131	0.129295	-420.814283	-420.806368	-420.805423	-420.846873	29.192
O         -0.13870        1.09640       -0.49420
C         -0.14000       -0.24400       -0.11700
C         -0.41680       -0.56390        1.33090
O         -0.78510        0.53980        2.12430
C         -1.43180       -0.95000        0.28060
C         -2.77610       -0.28630        0.23980
C         -3.17040        0.65860       -0.81870
O         -3.62730       -0.69280       -0.83570
H         -0.50270        1.58670        0.25650
H          0.60520       -0.81060       -0.66530
H          0.13220       -1.34360        1.85470
H          0.01650        0.89710        2.52300
H         -1.47470       -2.01230        0.05460
H         -3.29010       -0.21130        1.19810
H         -3.93510        1.40660       -0.61070
H         -2.44680        0.92120       -1.58490
