22
gdb 11569	5.51655	0.92751	0.84587	1.3037	78.72	-0.2546	0.0699	0.3245	1433.7794	0.198776	-350.196575	-350.186822	-350.185878	-350.231726	35.498
C          0.01580        1.53500       -0.20430
C         -0.01360        0.02690        0.05360
C         -1.42910       -0.56570        0.00990
O         -2.06660       -0.29690       -1.23750
C         -1.43950       -2.06340        0.35130
C         -2.82330       -2.67550        0.38990
C         -3.44940       -3.25880       -0.84830
C         -3.00650       -4.16860        0.27110
H          1.04160        1.91480       -0.22990
H         -0.46530        1.76980       -1.15730
H         -0.52250        2.07820        0.58040
H          0.60430       -0.49260       -0.69420
H          0.43620       -0.19940        1.02860
H         -2.05240       -0.03670        0.74440
H         -1.58650       -0.78040       -1.91920
H         -0.81880       -2.60220       -0.38110
H         -0.94520       -2.19910        1.32300
H         -3.50870       -2.17100        1.06720
H         -4.51140       -3.11280       -1.01050
H         -2.86260       -3.25760       -1.76100
H         -2.12140       -4.77660        0.11190
H         -3.76540       -4.64680        0.88050
