16
gdb 16432	3.42245	2.20046	1.67658	2.9667	63.79	-0.2271	0.0631	0.2901	804.5829	0.1291	-383.642262	-383.635185	-383.634241	-383.673123	27.59
C         -0.15140        1.61450       -0.01540
C         -0.05520        0.09560        0.00510
C          1.15310       -0.59350       -0.67000
C          2.11210       -0.34770        0.53560
O          2.52260       -1.74010        0.64780
C          1.10830       -1.80990        0.30730
C          0.68610       -0.59440        1.17990
O          0.33380       -0.68320        2.50470
H          0.80870        2.08450        0.22620
H         -0.45850        1.97980       -1.00090
H         -0.89210        1.97340        0.70860
H         -1.02020       -0.36560       -0.23600
H          1.43920       -0.62490       -1.71830
H          2.85710        0.42930        0.70170
H          0.63510       -2.78420        0.19120
H          0.27520        0.20580        2.87180
