18
gdb 9616	3.12296	1.57198	1.27754	1.913	75.5	-0.2371	0.0525	0.2896	1029.7831	0.150458	-347.74779	-347.738671	-347.737726	-347.781135	33.514
C         -0.27550        1.27510        0.04580
O          0.33410        0.00460       -0.07760
C          0.79650       -0.54320        1.11900
C          2.05600        0.08790        1.67280
C         -0.23270       -1.12430        2.05010
C          0.64660       -2.05280        1.20770
C          0.07610       -2.80920        0.13380
C         -0.38750       -3.47450       -0.75430
H          0.43950        2.05430        0.34490
H         -0.67350        1.52770       -0.93950
H         -1.10010        1.26170        0.77240
H          1.88300        1.12610        1.97570
H          2.41010       -0.45610        2.55280
H          2.84760        0.07890        0.91710
H         -0.06060       -1.09750        3.12060
H         -1.26960       -1.05410        1.74410
H          1.44460       -2.55970        1.74370
H         -0.79600       -4.04820       -1.54830
