16
gdb 6627	4.91483	0.82496	0.79342	3.57	70.63	-0.2424	0.0421	0.2845	1469.5169	0.129597	-379.937339	-379.927778	-379.926834	-379.974298	32.344
C         -0.12320        1.22190       -0.49540
C         -0.06330       -0.16000       -0.04170
C         -0.00090       -1.30670        0.32060
C          0.04520       -2.69240        0.78310
N         -1.25500       -3.35740        0.73660
C         -1.48170       -4.34190       -0.20700
N         -2.81920       -4.70060       -0.32500
O         -0.60390       -4.84740       -0.88050
H          0.75330        1.47710       -1.10110
H         -1.01160        1.39730       -1.11210
H         -0.16010        1.92110        0.34730
H          0.70900       -3.29320        0.15370
H          0.44160       -2.72880        1.80610
H         -2.04380       -2.78840        1.00380
H         -3.39790       -4.62130        0.49800
H         -2.93950       -5.56820       -0.82560
