15
gdb 5539	3.3477	1.91704	1.30908	1.9312	63.59	-0.1939	0.035	0.229	914.1808	0.120732	-396.005218	-395.997497	-395.996552	-396.037757	28.094
C          0.25620        0.95820        0.59140
N         -0.38180        0.45590       -0.63330
C          0.35670       -0.49980       -1.34750
C          0.76750       -1.79200       -1.11170
O          0.50630       -2.52250       -0.00060
N          1.48930       -2.29540       -2.15100
C          1.53710       -1.31880       -3.04210
N          0.87610       -0.22200       -2.61090
H          0.49220        0.16960        1.31970
H          1.18690        1.46950        0.32860
H         -0.40880        1.68710        1.06480
H         -1.31120        0.11130       -0.42090
H          0.92820       -3.37920       -0.13840
H          2.03440       -1.36710       -3.99860
H          0.74420        0.65110       -3.09390
