20
gdb 6939	4.71988	0.97746	0.92026	1.7758	73.05	-0.2494	0.0756	0.325	1334.8184	0.174135	-386.112624	-386.10298	-386.102036	-386.14711	34.742
C          0.12040        1.32910       -0.14910
O          0.24690       -0.06960       -0.08770
C          0.46640       -0.54110        1.22740
C          0.52690       -2.04370        1.18890
C          1.81050       -2.77280        0.83210
C          1.23400       -2.87130        2.22460
C          1.95540       -2.26900        3.41040
O          0.53150       -4.05000        2.54060
H          1.03180        1.84090        0.20150
H         -0.05280        1.59770       -1.19420
H         -0.72630        1.69260        0.45580
H          1.40090       -0.11520        1.62980
H         -0.35030       -0.20390        1.88970
H         -0.38130       -2.50610        0.81480
H          1.73000       -3.64410        0.19220
H          2.70560       -2.17610        0.68500
H          2.48140       -1.34770        3.14840
H          1.25200       -2.05210        4.22080
H          2.70340       -2.97350        3.79520
H          1.18200       -4.72790        2.75650
