15
gdb 14137	4.37822	1.68271	1.46604	2.9387	61.54	-0.236	0.0238	0.2597	860.6149	0.119202	-399.786126	-399.779075	-399.778131	-399.817521	26.44
O          0.01540        1.41560        0.04050
C          0.02920        0.02090        0.00840
C         -0.49470       -0.77850        1.19360
C         -1.30520       -0.64030       -0.06060
C         -2.63350        0.11060       -0.19350
N         -3.40370       -0.69230       -1.16130
C         -2.66200       -1.67150       -1.46520
O         -1.42900       -1.78980       -0.90520
H          0.70100        1.71110        0.64870
H          0.83200       -0.43460       -0.57090
H         -0.02740       -1.73530        1.39940
H         -0.84150       -0.22760        2.06280
H         -3.18150        0.17730        0.75290
H         -2.49000        1.12910       -0.56580
H         -2.91440       -2.46830       -2.15550
