17
gdb 2109	4.65492	2.49685	1.77836	1.5854	60.54	-0.2564	0.0933	0.3497	740.5091	0.149782	-346.867442	-346.860807	-346.859863	-346.897653	25.428
C          0.01050        1.49530        0.01000
C          0.05320       -0.01680        0.00150
O          0.70700       -0.43590       -1.17510
C          0.79290       -1.85180       -1.25670
C          1.50430       -2.41670       -0.02530
C          0.81670       -1.86510        1.22550
O          0.72930       -0.44850        1.16070
H          1.03020        1.88780        0.00200
H         -0.51830        1.85840       -0.87400
H         -0.50060        1.84880        0.90810
H         -0.96810       -0.45030        0.00890
H         -0.21970       -2.28440       -1.33760
H          1.33080       -2.07840       -2.18100
H          1.47600       -3.51220       -0.03090
H          2.55240       -2.09970       -0.03360
H         -0.19420       -2.29860        1.32110
H          1.37210       -2.10160        2.13690
