15
gdb 4460	3.46944	1.85427	1.22683	0.8493	64.2	-0.209	0.0323	0.2413	955.7602	0.118567	-399.854497	-399.846661	-399.845717	-399.886521	28.383
C          0.15020        1.49960        0.06280
C         -0.04400        0.03200       -0.01490
C         -1.09910       -0.81660        0.01190
C         -2.55530       -0.52550        0.14100
N         -0.63670       -2.13890       -0.10620
C          0.64250       -1.99850       -0.19500
O          1.57420       -2.94210       -0.32540
O          1.10760       -0.74600       -0.15230
H          0.77070        1.78300        0.92110
H          0.63610        1.89400       -0.83750
H         -0.81760        1.99490        0.16830
H         -3.10740       -0.90430       -0.72610
H         -2.97420       -1.01480        1.02710
H         -2.74250        0.54800        0.22290
H          1.10640       -3.78680       -0.34290
