15
gdb 3408	4.0634	2.80079	2.2985	1.6839	56.11	-0.2333	0.0703	0.3036	641.845	0.124948	-345.604177	-345.597757	-345.596813	-345.634059	24.821
C         -0.09140        1.58220        0.01600
C          0.15770        0.08760        0.03750
O          1.31820       -0.35320       -0.75170
C          1.75270       -1.19000        0.33160
C          2.19060       -0.31490        1.44870
O          2.79150        0.91950        1.21240
C          0.70540       -0.61030        1.28080
H          0.73640        2.13340        0.46420
H         -0.24450        1.92660       -1.01210
H         -1.00150        1.80680        0.58290
H         -0.71920       -0.44890       -0.34690
H          2.07840       -2.19610        0.09160
H          2.63090       -0.82500        2.30130
H          2.74990        1.04830        0.25460
H          0.10950       -1.08480        2.04960
