19
gdb 17449	3.34015	2.05546	1.62515	1.6446	74.6	-0.2475	0.094	0.3414	874.5583	0.166202	-327.87447	-327.86694	-327.865996	-327.905687	29.768
C         -0.06290        1.53810       -0.05620
C          0.09280        0.03430        0.03750
C          1.37740       -0.71880       -0.20440
C          2.57640       -0.01640        0.39480
N          3.16230       -0.77490        1.50520
C          1.93270       -0.01480        1.76210
C          1.94370        0.99930        2.86910
C          0.71390       -0.72150        1.19030
H          0.81580        2.06700        0.31870
H         -0.21540        1.84290       -1.09750
H         -0.93180        1.87760        0.51860
H         -0.76600       -0.50180       -0.36790
H          1.43270       -1.54610       -0.90450
H          3.19180        0.74490       -0.07140
H          2.98260       -1.77270        1.40740
H          2.92170        1.48280        2.93350
H          1.17780        1.76620        2.71870
H          1.74680        0.51830        3.83470
H          0.19550       -1.54620        1.66990
