20
gdb 15862	2.40212	2.0618	1.30013	0.6764	80.77	-0.2527	0.0504	0.3031	1021.5443	0.175629	-311.836459	-311.827589	-311.826645	-311.869372	33.722
C         -0.09400        1.58980       -0.11060
C          0.06190        0.08500        0.01730
C          1.04500       -0.66440       -0.91830
C          1.41320       -1.60710        0.25600
C          2.84450       -2.09000        0.40850
C          0.83060       -0.52950        1.25120
C          1.82020        0.34520        1.85000
C          2.64270        1.07210        2.34430
H          0.87260        2.09410       -0.02190
H         -0.52740        1.84920       -1.08290
H         -0.75250        1.99220        0.66700
H         -0.92080       -0.39710       -0.02600
H          0.64240       -1.11450       -1.82950
H          1.89290       -0.02530       -1.18860
H          0.72800       -2.46180        0.26540
H          3.54120       -1.24780        0.45030
H          2.97450       -2.67600        1.32490
H          3.12690       -2.72590       -0.43800
H          0.18580       -0.93340        2.03810
H          3.36370        1.71100        2.79080
