17
gdb 7651	5.02574	1.29494	1.13101	2.9761	64.61	-0.2332	0.0316	0.2648	1065.2574	0.141739	-401.025089	-401.016703	-401.015759	-401.058662	30.317
C         -0.17120        1.52160        0.33180
C          0.61150        0.22650        0.33790
C          0.36490       -0.78870       -0.80140
C          1.86720       -0.60840       -1.10440
O          1.99410        0.41510       -0.09020
C          2.73370       -1.84270       -0.86100
N          3.54510       -1.73700        0.22020
O          2.66110       -2.81170       -1.59270
H         -0.16220        1.97630       -0.66350
H         -1.21120        1.33700        0.62270
H          0.26000        2.23520        1.04090
H          0.58960       -0.22820        1.33730
H          0.06220       -1.79440       -0.50990
H         -0.29810       -0.42370       -1.58750
H          2.10740       -0.22480       -2.10200
H          3.56090       -0.87320        0.73720
H          4.18950       -2.48040        0.43030
