13
gdb 2983	5.24727	1.88278	1.61422	1.8571	54.04	-0.2647	-0.0043	0.2604	753.2528	0.102159	-340.606711	-340.599744	-340.5988	-340.637823	24.64
O         -0.80760        0.84960        0.10800
C         -0.12650       -0.37300       -0.11200
C          0.95840       -0.21770       -1.09900
N          1.82470       -0.07110       -1.84960
C          0.41150       -1.00320        1.17410
C          0.91540       -0.15470        2.27730
N         -0.37190       -0.86570        2.39990
H         -0.15710        1.55460        0.20140
H         -0.87720       -1.04850       -0.54010
H          0.84960       -1.98620        1.01690
H          1.71180       -0.52060        2.91750
H          0.89540        0.92500        2.15490
H         -1.12430       -0.20020        2.22700
