16
gdb 9436	2.67642	1.75607	1.72642	2.5077	71.38	-0.2374	-0.0274	0.2099	894.1166	0.127688	-346.581645	-346.573217	-346.572273	-346.614656	30.821
C         -0.25450        1.63100        0.12190
C          0.00230        0.12730       -0.02400
C          0.87270       -0.34720       -1.25140
C          1.84550       -1.11030       -0.30560
C          1.16480       -0.41990        0.87950
O          1.44520       -0.23970        2.02470
C         -1.20560       -0.66110        0.14930
C         -2.19430       -1.32930        0.30120
H          0.67610        2.19310       -0.00340
H         -0.97370        1.97350       -0.62740
H         -0.65650        1.84940        1.11430
H          0.34360       -0.95290       -1.98560
H          1.34670        0.49950       -1.75240
H          1.67010       -2.19070       -0.28700
H          2.91870       -0.93410       -0.40840
H         -3.07110       -1.91260        0.43810
