19
gdb 8680	2.68331	1.62536	1.29948	4.6703	71.46	-0.2511	0.0374	0.2885	1041.2624	0.165379	-361.248488	-361.238829	-361.237884	-361.282273	35.112
C         -0.13700        1.56450        0.04450
C          0.04540        0.04610       -0.00590
C          0.80450       -0.47020       -1.24900
N          2.14050        0.13140       -1.31300
C          0.84740       -2.02630       -1.24000
N          1.61790       -2.51280       -2.38190
C          0.06930       -0.07020       -2.47260
N         -0.52250        0.18040       -3.43340
H          0.82580        2.07870        0.00270
H         -0.73920        1.91450       -0.79910
H         -0.64740        1.85520        0.96730
H          0.60770       -0.29690        0.87300
H         -0.92920       -0.45270        0.03540
H          2.58800        0.00760       -0.40790
H          2.68540       -0.41180       -1.98060
H          1.36460       -2.32680       -0.32160
H         -0.18120       -2.41730       -1.18380
H          1.86060       -3.48920       -2.25920
H          1.06440       -2.44890       -3.23120
