18
gdb 18445	3.21812	1.64404	1.34464	3.4977	72.95	-0.2372	-0.0191	0.2182	973.9616	0.153438	-347.78357	-347.775801	-347.774856	-347.815729	29.221
C          0.19200        1.20060       -0.91050
C          0.56760       -0.25250       -0.64860
C          1.87510       -0.88300       -1.24810
C          2.23380       -1.41130        0.15140
C          2.42480       -0.29200        1.15600
C          3.09760        0.99990        0.87610
O          3.68600        1.63520        1.72000
C          1.01740       -0.72270        0.74300
H          0.99050        1.89770       -0.64320
H         -0.04170        1.35340       -1.97000
H         -0.69570        1.48050       -0.33260
H         -0.27500       -0.88480       -0.94900
H          1.66410       -1.68390       -1.95940
H          2.58990       -0.19830       -1.71230
H          2.63020       -2.39700        0.36280
H          2.66420       -0.64410        2.15630
H          3.06430        1.35900       -0.17310
H          0.35010       -1.07040        1.52360
