13
gdb 4716	6.67247	1.28136	1.07494	5.1245	67.67	-0.2087	-0.034	0.1746	1003.4623	0.096217	-398.650243	-398.643209	-398.642265	-398.681402	26.008
O          0.07860        1.32530        0.23910
C          0.06760       -0.00230        0.00310
C          0.07100       -0.75110       -1.16720
C          0.05380       -2.10430       -0.77280
C          0.04080       -2.15790        0.61310
N          0.04970       -0.83770        1.06460
C          0.02160       -3.27800        1.52020
O          0.01310       -4.44830        1.19190
H          0.09020        1.79060       -0.60330
H          0.08420       -0.35590       -2.17130
H          0.05090       -2.97260       -1.41280
H          0.04400       -0.53840        2.02580
H          0.01480       -2.98600        2.59930
