14
gdb 14594	5.67746	0.854	0.78107	5.2082	65.39	-0.2455	-0.0339	0.2116	1371.5644	0.104811	-415.879687	-415.871116	-415.870172	-415.91439	28.203
O          0.91460       -0.11910        0.52310
C          0.52270        0.77520       -0.17840
C          0.59210        2.24840        0.21120
N          0.65150        3.08000       -0.96720
C          1.59490        3.91510       -1.04370
N          1.79810        4.78040       -2.11560
C          1.05690        4.91930       -3.28170
O          0.07740        4.29680       -3.58720
H          0.05840        0.59610       -1.17180
H         -0.34710        2.46130        0.74620
H          1.41820        2.38890        0.92660
H          2.36050        4.05120       -0.26570
H          2.59540        5.39280       -2.03410
H          1.50420        5.71010       -3.91800
