9
gdb 2563	3.8377	2.64831	1.74746	3.7521	49.18	-0.3402	-0.0566	0.2836	659.7904	0.05428	-338.214346	-338.208157	-338.207212	-338.244541	21.125
N          0.03420       -1.12940       -0.00710
C          0.00330        0.02450        0.01610
C         -0.03810        1.47440        0.06340
C          0.54200        2.18290        1.23620
O          1.22250        2.13950       -0.00730
C         -1.12550        2.09080       -0.67390
N         -1.99600        2.58650       -1.24800
H          0.11670        3.14470        1.51270
H          0.97050        1.58180        2.03460
