13
gdb 21930	7.01545	1.30138	1.10568	4.4744	55.37	-0.2289	0.018	0.2469	988.1744	0.097008	-431.940321	-431.932888	-431.931944	-431.97306	26.087
O         -0.13530        1.38750       -0.09680
C         -0.01640       -0.01880        0.04120
C         -1.40040       -0.58160        0.04750
N         -1.74170       -1.86110        0.08410
C         -3.10180       -1.79550        0.07970
O         -3.87220       -2.89110        0.11090
N         -3.62830       -0.58510        0.04200
N         -2.49940        0.18350        0.02390
H          0.73940        1.77820       -0.02550
H          0.55170       -0.47050       -0.78540
H          0.49120       -0.29900        0.97640
H         -3.27270       -3.64630        0.13260
H         -2.55070        1.18750       -0.01480
