22
gdb 7161	5.75609	0.79167	0.73747	0.7521	84.89	-0.2581	0.0557	0.3137	1595.2006	0.197544	-313.051506	-313.041186	-313.040242	-313.086925	37.251
C          0.08210        1.62280        0.02530
C         -0.04130        0.09650       -0.00890
C          0.64650       -0.52540       -1.23030
C          0.64860       -2.06380       -1.26330
C         -0.76150       -2.65900       -1.35560
C          1.53440       -2.55410       -2.43760
C          1.74110       -3.99710       -2.46090
C          1.90890       -5.18780       -2.45660
H          1.13200        1.93520        0.05360
H         -0.37240        2.07670       -0.86250
H         -0.41470        2.04400        0.90480
H          0.39610       -0.32690        0.90520
H         -1.10220       -0.17890        0.00520
H          0.17110       -0.14660       -2.14720
H          1.68640       -0.17100       -1.26180
H          1.11510       -2.42440       -0.33630
H         -0.71810       -3.74930       -1.42610
H         -1.36550       -2.40300       -0.48100
H         -1.28440       -2.28480       -2.24470
H          1.08090       -2.23480       -3.38640
H          2.51030       -2.05430       -2.38520
H          2.06230       -6.23830       -2.46380
