14
gdb 19415	3.28184	2.1791	1.65474	1.1626	56.79	-0.2475	0.0611	0.3086	781.6379	0.106086	-419.597503	-419.590784	-419.589839	-419.628365	25.623
O          0.21450        1.39740       -0.05380
C          0.01410        0.01530       -0.03930
C          0.29280       -0.73150        1.28390
O         -0.65260       -0.19520        2.22440
C         -1.08600       -1.25110        1.34310
C         -1.43920       -0.54840        0.04460
C         -2.70220       -0.02420       -0.46140
O         -2.06720       -1.17700       -1.05080
H         -0.17320        1.73470        0.76410
H          0.53760       -0.41300       -0.89860
H          1.21830       -1.13310        1.67890
H         -1.48320       -2.15670        1.78400
H         -3.62960       -0.22570        0.07190
H         -2.69380        0.87230       -1.07850
