16
gdb 15605	2.92425	2.06785	1.49339	1.9742	60.12	-0.2508	-0.0456	0.2052	861.2282	0.1304	-420.881986	-420.874402	-420.873458	-420.914483	27.535
O          0.37640        1.18730       -0.46470
C          0.05010       -0.06880        0.05910
C          0.19410       -0.25470        1.58280
C         -0.61660       -1.52910        1.82090
O         -1.63790       -1.56930        0.79900
C         -1.41430       -0.52990       -0.14430
C         -2.46330        0.54790        0.12140
O         -2.28120        1.74280        0.07740
H         -0.35770        1.78460       -0.25650
H          0.70040       -0.79320       -0.44570
H          1.23420       -0.34440        1.90140
H         -0.24960        0.60500        2.09710
H          0.00650       -2.42700        1.71920
H         -1.10460       -1.56310        2.79980
H         -1.58830       -0.92210       -1.15640
H         -3.45150        0.12710        0.40530
