11
gdb 5469	3.73777	1.96174	1.28652	4.686	61.1	-0.2318	-0.0275	0.2043	841.4696	0.074822	-393.636813	-393.63039	-393.629446	-393.667478	23.567
O          0.12440        1.35870        0.00910
C          0.08090        0.02320       -0.02490
C          0.01540       -0.76440       -1.16430
N         -0.00830       -2.06850       -0.66540
C          0.04240       -1.98800        0.67840
N          0.09700       -0.73540        1.10000
C         -0.02360       -0.45390       -2.53220
N         -0.05660       -0.21790       -3.66760
H          0.16570        1.61580        0.93940
H         -0.05490       -2.90420       -1.22490
H          0.03740       -2.86110        1.31280
