24
gdb 5812	2.36123	1.7013	1.68563	1.3452	80.52	-0.2599	0.064	0.3239	1026.6028	0.219327	-351.419859	-351.40909	-351.408145	-351.454361	41.417
C         -0.04050        1.53960        0.01940
C          0.00240       -0.00420        0.02330
C          0.68960       -0.47390        1.32000
C         -1.45360       -0.51890        0.02250
C          0.75700       -0.52420       -1.25580
C          2.19940        0.00320       -1.35880
C          0.78130       -2.06000       -1.35650
O         -0.00040       -0.00490       -2.36180
H          0.95160        1.97970        0.15670
H         -0.45620        1.91650       -0.91710
H         -0.66770        1.89550        0.84340
H          0.13750       -0.09370        2.18610
H          0.71320       -1.56450        1.40510
H          1.71580       -0.10350        1.40300
H         -1.95600       -0.26880       -0.91390
H         -1.50760       -1.60260        0.16260
H         -2.01010       -0.05950        0.84620
H          2.82670       -0.34420       -0.53320
H          2.65660       -0.36220       -2.28620
H          2.22490        1.09390       -1.38430
H         -0.22790       -2.47460       -1.38070
H          1.28560       -2.35740       -2.28380
H          1.33090       -2.52000       -0.53060
H          0.42740       -0.29960       -3.17210
