13
gdb 4887	5.05476	1.4981	1.19146	5.6921	56.97	-0.213	0.0312	0.2442	951.269	0.095765	-435.77278	-435.765584	-435.76464	-435.804667	25.625
C         -0.11870        1.43610        0.13970
N         -0.09290        0.06490       -0.37850
C         -1.16360       -0.75220       -0.11310
C         -1.31200       -2.02420        0.27090
O         -2.67300       -2.34030        0.22140
C         -3.33950       -1.22160       -0.15060
O         -4.51570       -1.09900       -0.27010
O         -2.41360       -0.22470       -0.37150
H          0.73810        1.97630       -0.26780
H         -1.02960        1.92890       -0.20320
H         -0.08500        1.48610        1.23730
H          0.78620       -0.40830       -0.22160
H         -0.63230       -2.80230        0.56260
