18
gdb 9512	2.76876	1.90205	1.53111	3.1629	67.89	-0.2444	-0.0287	0.2157	915.8509	0.15251	-384.950856	-384.942404	-384.94146	-384.983635	31.33
C         -0.11700        1.60190        0.02550
C         -0.05120        0.07430       -0.06590
C         -1.43710       -0.56340        0.12270
O         -1.96970       -0.27310        1.39860
C          0.83400       -0.47330       -1.23840
C          1.96200       -0.86660       -0.23180
C          0.97110       -0.55820        0.89370
O          0.90780       -0.83970        2.06180
H          0.87940        2.05570        0.01490
H         -0.67830        2.00230       -0.82610
H         -0.62770        1.90010        0.94380
H         -2.14200       -0.16320       -0.61590
H         -1.36630       -1.65070       -0.04700
H         -1.31240       -0.56200        2.04680
H          0.39170       -1.34010       -1.73550
H          1.11120        0.26350       -1.99370
H          2.35050       -1.88760       -0.25720
H          2.81060       -0.17520       -0.23370
