12
gdb 2571	4.06461	2.46426	1.72698	2.0186	52.2	-0.2605	-0.052	0.2084	692.9629	0.088765	-360.502298	-360.495547	-360.494603	-360.533163	23.243
O         -0.17500        0.29900        0.75210
C          0.08170        1.07870       -0.13590
C          1.30050        1.94450       -0.10380
C          1.53810        2.68190        1.20200
N          2.37320        1.56500        0.84120
C          1.74440        2.59640       -1.36950
O          1.05430        2.68840       -2.35370
H         -0.55680        1.19350       -1.02970
H          2.01070        3.65980        1.16250
H          0.76690        2.55370        1.95680
H          2.04190        0.72810        1.32480
H          2.77840        3.00090       -1.32400
