17
gdb 12479	3.2658	2.09946	1.54407	3.9615	65.37	-0.2546	0.0398	0.2943	855.6424	0.144571	-401.010704	-401.003552	-401.002608	-401.042374	26.98
N         -0.27290        0.91400       -0.68310
C          0.03490        0.03800        0.17030
O          1.28630       -0.48800        0.29240
C          1.52690       -1.38880        1.38560
C          0.93640       -2.78620        1.12880
C         -0.38030       -2.72930        0.33830
C         -1.39560       -1.73160        0.88880
O         -0.86380       -0.40600        1.08190
H          0.55610        1.17930       -1.21470
H          2.61450       -1.43100        1.47540
H          1.11980       -0.95610        2.30230
H          1.65100       -3.40030        0.57130
H          0.78510       -3.27800        2.09710
H         -0.16200       -2.47420       -0.70450
H         -0.85200       -3.71780        0.31890
H         -2.25940       -1.66210        0.21640
H         -1.75320       -2.03140        1.87850
