17
gdb 17745	3.88697	2.60449	2.13663	1.7056	70.19	-0.2191	0.0878	0.3069	712.5228	0.143687	-326.642328	-326.636322	-326.635378	-326.671898	25.191
C         -0.06340        1.47140        0.02370
C          0.01600       -0.02760       -0.04010
C          0.23440       -0.81930       -1.34760
C         -0.50410       -1.92480       -0.57900
C          0.28470       -2.24860        0.69800
C         -0.63870       -1.39600        1.51460
C          0.68170       -0.81730        1.10500
N         -1.26860       -0.85970        0.23750
H          0.92060        1.91970       -0.15800
H         -0.76090        1.85580       -0.72660
H         -0.40740        1.79990        1.01010
H         -0.37790       -0.41700       -2.16010
H          1.25580       -1.00400       -1.68990
H         -1.08110       -2.70790       -1.07070
H          0.85950       -3.12270        0.97500
H         -1.13700       -1.52950        2.46640
H          1.56110       -0.59160        1.69500
