16
gdb 16134	3.99022	1.79188	1.46418	3.2924	71.05	-0.2378	-0.0157	0.2222	872.7297	0.131225	-346.616353	-346.609557	-346.608613	-346.647258	26.311
O         -0.17590        0.01110        0.16210
C         -0.02030        1.17820       -0.10750
C          1.27260        1.88340       -0.07590
C          1.27030        3.38270        0.25130
C          1.64610        2.95800       -1.12350
C          3.12390        2.74640       -1.45570
C          3.56270        1.65730       -0.49800
C          2.54860        1.17120        0.21920
H         -0.88310        1.82280       -0.40010
H          0.30100        3.85640        0.37590
H          2.03680        3.71770        0.94170
H          0.95380        3.18050       -1.92730
H          3.25430        2.43340       -2.49980
H          3.70570        3.66920       -1.33540
H          4.59490        1.33510       -0.42210
H          2.59840        0.36900        0.94400
