17
gdb 2806	4.06387	2.01892	1.53352	1.6859	59.8	-0.2573	0.0669	0.3241	820.6642	0.14827	-346.831175	-346.82354	-346.822596	-346.862823	28.084
O          0.08150        1.23840       -0.45850
C          0.02680       -0.16170       -0.22790
C         -1.40460       -0.51750        0.13610
C         -2.40000       -0.42970       -1.05670
C         -2.27000       -1.96600       -1.25710
C         -1.68640       -2.05470        0.17620
O         -0.65320       -2.96630        0.46850
H          0.99120        1.47470       -0.66210
H          0.34490       -0.71570       -1.12940
H          0.69720       -0.46280        0.59150
H         -1.67890        0.04150        1.03500
H         -3.40270       -0.13750       -0.73650
H         -2.09910        0.21310       -1.88560
H         -3.17050       -2.54400       -1.47670
H         -1.51220       -2.21410       -2.00880
H         -2.47440       -2.26900        0.90410
H         -0.01280       -2.93590       -0.24930
