11
gdb 20485	5.23612	2.27867	1.60739	1.529	52.06	-0.2268	-0.0123	0.2146	703.417	0.074957	-430.680404	-430.674665	-430.67372	-430.710474	20.802
C          0.05630        1.37950       -0.10200
O          1.41760        1.83420        0.10980
C          2.02390        0.75550        0.66030
N          3.20130        0.45010        1.13320
N          3.04560       -0.89460        1.34990
N          1.79080       -1.40320        1.13440
C          1.18240       -0.35010        0.66100
O         -0.01910       -0.05360        0.11100
H         -0.59960        1.87920        0.62000
H         -0.23490        1.60040       -1.13090
H          3.62760       -1.33710        2.04340
