10
gdb 2643	159.61988	0.78257	0.78257	6.3203	82.74	-0.2665	-0.0718	0.1947	1344.4327	0.065892	-285.016369	-285.009105	-285.008161	-285.047272	23.786
C         -0.01810        1.47580        0.01020
C          0.00190        0.02730        0.00210
C          0.01860       -1.18470       -0.00460
C          0.03720       -2.53510       -0.01200
C          0.05360       -3.75110       -0.01860
C          0.07110       -5.10990       -0.02600
N          0.08610       -6.27360       -0.03240
H          0.99960        1.88120        0.00270
H         -0.54360        1.86470       -0.86890
H         -0.52670        1.85500        0.90340
