14
gdb 15102	9.15765	0.76929	0.73009	5.5179	76.33	-0.2605	-0.045	0.2155	1460.0342	0.106979	-341.532451	-341.524655	-341.523711	-341.565443	27.233
N          0.09590       -3.64730       -0.25160
C          0.06290       -2.49390       -0.11830
C          0.02140       -1.13790        0.03610
C         -0.01550        0.06120        0.17310
C         -0.07140        1.51030        0.32580
N          1.26280        2.10500        0.27620
C          1.76450        2.43710       -1.05560
C          1.30380        3.50840       -0.13040
H         -0.75260        1.91690       -0.44540
H         -0.51900        1.75030        1.29880
H          2.82330        2.25800       -1.21230
H          1.13120        2.21150       -1.91180
H          0.36200        4.00060       -0.36810
H          2.01860        4.12660        0.40370
