20
gdb 14336	4.24401	1.62507	1.40375	0.296	80.83	-0.2242	0.0329	0.2571	975.9923	0.178869	-311.882729	-311.875359	-311.874415	-311.914128	29.132
C          0.12260        1.48060        0.20250
C         -0.02260       -0.00440        0.08530
C          0.19160       -0.75230       -1.00220
C         -0.05340       -2.21860       -0.78140
C          1.21710       -3.10850       -0.62150
C          1.13830       -2.90280        0.91720
C         -0.28750       -2.29060        0.76690
C         -0.47900       -0.84770        1.26370
H          0.86010        1.74780        0.97040
H          0.43600        1.93410       -0.74190
H         -0.82270        1.94810        0.50780
H          0.51130       -0.35470       -1.96140
H         -0.82390       -2.62050       -1.44880
H          1.03350       -4.14570       -0.91600
H          2.12550       -2.76260       -1.12220
H          1.21710       -3.80390        1.53030
H          1.86400       -2.17330        1.28840
H         -1.07800       -2.97020        1.09050
H          0.10720       -0.64210        2.17050
H         -1.52420       -0.62230        1.52140
