15
gdb 2002	6.21612	2.01519	2.01511	0.6199	68.61	-0.2575	0.0461	0.3036	703.5632	0.12584	-271.300649	-271.294643	-271.293699	-271.330151	24.014
C          0.01970       -1.15180       -0.00480
C          0.00170        0.05130        0.00220
C         -0.01990        1.48580        0.01050
C         -0.64240        2.42520        1.09900
C         -0.04840        3.37560        0.02130
C          1.20760        2.45940        0.00140
C         -0.66770        2.43720       -1.05220
H          0.03560       -2.21330       -0.01100
H         -1.73120        2.39750        1.19050
H         -0.15390        2.41620        2.07670
H         -0.06480        4.46450        0.02760
H          1.83150        2.45280        0.89880
H          1.81050        2.46290       -0.91020
H         -0.20210        2.43900       -2.04110
H         -1.75830        2.41020       -1.11910
