17
gdb 3572	4.57747	2.74128	2.30202	0.2625	66.53	-0.2034	0.0798	0.2833	662.318	0.149164	-272.500426	-272.494115	-272.493171	-272.530253	25.219
C         -0.20770        1.60240       -0.06950
C          0.10420        0.10820        0.02870
C          1.35180       -0.66540       -0.32760
C          2.70970       -0.11860        0.19470
C          2.63860        1.15400        0.99600
C          2.17460       -0.13690        1.61650
C          0.81400       -0.68370        1.10160
H          0.46400        2.12460       -0.75650
H         -1.22450        1.73940       -0.45050
H         -0.16020        2.10330        0.90150
H         -0.74910       -0.48550       -0.30000
H          1.32310       -1.46710       -1.05590
H          3.65190       -0.50940       -0.16730
H          3.60780        1.48040        1.36500
H          1.97570        1.97150        0.75710
H          2.64780       -0.54380        2.50090
H          0.31910       -1.50130        1.61210
