16
gdb 1529	8.2517	1.23887	1.12158	4.1765	59.74	-0.244	0.0287	0.2727	1063.5931	0.134805	-362.925466	-362.916581	-362.915636	-362.960229	28.848
C          0.07030        1.42780       -0.08290
N          0.25970       -0.00620        0.01580
C          0.38070       -0.64690        1.21580
O          0.35030       -0.08200        2.28930
C          0.49510       -2.17120        1.09330
O          1.39070       -2.63410        2.06300
C          1.43770       -4.03900        2.13540
H          0.93060        1.91660       -0.55430
H         -0.82960        1.66990       -0.65870
H         -0.03810        1.80920        0.93310
H          0.36650       -0.53910       -0.83100
H         -0.51410       -2.59330        1.24830
H          0.81550       -2.46940        0.07880
H          0.45370       -4.46680        2.38520
H          1.77730       -4.49000        1.18890
H          2.14760       -4.29810        2.92400
