17
gdb 4841	4.3199	1.49797	1.14667	1.1899	73.94	-0.172	0.042	0.214	1055.0073	0.142282	-363.892526	-363.884222	-363.883277	-363.925631	29.875
C         -0.13940        1.43320       -0.23090
N          0.36700        0.09880        0.08220
C          0.72330       -0.73310       -0.96590
C          0.62320       -2.07780       -1.16960
C          1.29410       -2.33010       -2.41640
C          1.73600       -1.13780       -2.88650
C          2.46190       -0.70480       -4.10680
O          1.39050       -0.14370       -1.99070
H          0.61570        1.98130       -0.79730
H         -1.07050        1.42530       -0.81840
H         -0.31810        1.96780        0.70500
H         -0.20670       -0.39300        0.75250
H          0.13700       -2.79260       -0.52520
H          1.41840       -3.28550       -2.90300
H          1.87300        0.00100       -4.70570
H          3.41200       -0.21210       -3.86650
H          2.68040       -1.57550       -4.72960
