14
gdb 18221	4.05962	2.01673	1.56627	0.9592	61.28	-0.247	-0.0365	0.2105	788.7729	0.108012	-378.702468	-378.695922	-378.694977	-378.733597	24.016
O         -0.86270        0.85350       -0.48330
C          0.14720        0.89060        0.16830
C          1.27890        1.88630       -0.06140
N          2.57890        1.18070       -0.04710
C          3.19400        1.53330       -1.10440
N          2.59690        2.48320       -1.98330
C          1.38820        1.89730       -2.63720
C          1.25080        2.65880       -1.37720
H          0.33400        0.19170        1.01090
H          1.25020        2.57400        0.79870
H          4.17850        1.15470       -1.36380
H          1.11860        2.36480       -3.57810
H          1.28000        0.81750       -2.60530
H          0.84410        3.66280       -1.39880
