20
gdb 13009	2.56679	2.42611	1.63679	0.2563	79.41	-0.2227	0.0233	0.246	895.4947	0.177502	-311.876309	-311.868477	-311.867533	-311.907777	31.06
C         -0.17650        1.54790        0.02520
C          0.03360        0.02690       -0.00990
C          0.85870       -0.46580       -1.18460
C          1.84920       -1.27660       -0.80630
C          1.90840       -1.41390        0.67710
C          2.20490       -0.12170        1.42040
C          0.77310       -0.55310        1.21160
C         -0.05540       -0.95560        2.40860
H          0.77810        2.08110        0.06700
H         -0.71250        1.89040       -0.86640
H         -0.76670        1.84120        0.89990
H         -0.96540       -0.43610       -0.05660
H          0.64800       -0.16110       -2.20440
H          2.55900       -1.75670       -1.47110
H          2.18350       -2.35830        1.13550
H          2.59010       -0.20350        2.43240
H          2.61490        0.70320        0.84710
H         -0.54910       -0.08720        2.86240
H         -0.83770       -1.67080        2.12830
H          0.56100       -1.42240        3.18350
