13
gdb 16605	3.22657	2.35597	1.54804	5.5207	58.27	-0.2336	-0.0847	0.1489	781.6076	0.096079	-398.602659	-398.596216	-398.595272	-398.633465	24.169
O          0.01740        0.00180       -0.15130
C         -0.04420        1.18280        0.04240
C         -1.30060        2.03190        0.25150
C         -0.78040        3.37840        0.72500
N          0.05460        3.23830        1.91600
C          0.70930        3.44930        0.58710
C          1.19550        2.14190        0.05120
O          2.28430        1.85820       -0.36760
H         -1.82110        2.11890       -0.71050
H         -1.98170        1.55780        0.96270
H         -1.37920        4.27280        0.59140
H          0.09970        4.11430        2.43150
H          1.25000        4.36640        0.38870
