19
gdb 13796	4.07422	1.24168	1.13142	1.6316	74.38	-0.2264	-0.0236	0.2028	1150.0325	0.163367	-365.055954	-365.046851	-365.045907	-365.090018	32.538
C         -0.23090        1.63030       -0.44920
C         -0.43950        0.12000       -0.36900
N          0.59720       -0.55280       -1.15970
C          1.83910       -0.90160       -0.51630
C          0.89450       -1.98460       -0.95580
C          0.21380       -2.80730        0.10080
C         -0.21090       -4.19810       -0.33100
O          0.00890       -2.39470        1.22430
H          0.72340        1.91890        0.00390
H         -0.22790        1.96920       -1.48910
H         -1.02850        2.15320        0.08710
H         -0.45390       -0.21310        0.67520
H         -1.40630       -0.14670       -0.81200
H          2.74830       -0.73160       -1.08760
H          1.91830       -0.76200        0.56090
H          1.09580       -2.51170       -1.88560
H          0.65170       -4.76070       -0.70680
H         -0.66040       -4.72750        0.50940
H         -0.92920       -4.13450       -1.15690
