15
gdb 4827	4.78043	1.38085	1.14019	1.8862	64.25	-0.2362	-0.0002	0.236	1031.4326	0.118976	-399.83523	-399.827362	-399.826418	-399.868056	27.558
C          0.13730        1.36980        0.14630
C         -0.01290       -0.09560       -0.04610
N         -0.31510       -0.74190       -1.12740
C         -0.30980       -2.07930       -0.74850
C         -0.00700       -2.18070        0.56660
C          0.16600       -3.28800        1.54410
O          1.50750       -3.44440        1.99150
O          0.18620       -0.89950        1.03390
H          1.14950        1.62270        0.47900
H         -0.06120        1.87150       -0.80090
H         -0.56120        1.74260        0.90250
H         -0.52600       -2.86970       -1.44990
H         -0.51660       -3.14410        2.39620
H         -0.10880       -4.22760        1.05740
H          1.77270       -2.61340        2.39920
