16
gdb 2989	5.21453	1.86628	1.48246	3.8044	62.16	-0.2393	0.0279	0.2672	829.085	0.136585	-325.784331	-325.776816	-325.775871	-325.816093	26.632
C         -0.39970        1.23730        0.01170
N          0.10080       -0.12600        0.09680
C          0.65060       -0.57040        1.26820
O          0.68010        0.04890        2.31110
C          0.23300       -0.86980       -1.12040
C         -0.13230       -2.33130       -1.16010
C         -1.01010       -1.31910       -1.84930
H          0.24960        1.85710       -0.61970
H         -1.40760        1.24980       -0.41490
H         -0.41780        1.65030        1.02000
H          1.06510       -1.58930        1.16120
H          1.06660       -0.56160       -1.75160
H          0.48610       -2.98730       -1.76170
H         -0.51540       -2.78210       -0.25280
H         -1.96400       -1.09670       -1.38490
H         -1.00890       -1.27210       -2.93200
