20
gdb 14192	3.48324	2.20921	2.02591	0.0653	78.04	-0.2656	0.0967	0.3624	804.4636	0.179698	-311.84647	-311.840008	-311.839064	-311.876445	27.616
C         -0.03180        1.49810        0.07360
C          0.03160       -0.01060        0.03500
C          0.91010       -0.77960       -0.99600
C          0.82560       -1.91630        0.03000
C         -0.69460       -2.13820        0.45220
C         -0.29910       -1.73970        1.89950
C          0.74300       -0.86960        1.18400
C         -1.28740       -0.81360       -0.07020
H          0.96790        1.93940        0.15050
H         -0.50170        1.89790       -0.83320
H         -0.61830        1.84860        0.93080
H          0.51350       -0.91740       -2.00830
H          1.92860       -0.38110       -1.05140
H          1.49020       -2.77950        0.05000
H         -1.22610       -3.06510        0.23660
H         -1.06410       -1.27500        2.53140
H          0.18310       -2.55640        2.44590
H          1.61950       -0.43210        1.66330
H         -2.08920       -0.43460        0.57220
H         -1.66090       -0.85930       -1.09800
