13
gdb 5505	3.3879	1.90147	1.21791	5.8404	63.42	-0.2135	-0.0257	0.1878	903.5142	0.096411	-398.64233	-398.635246	-398.634302	-398.673552	26.208
O          0.11200        1.35030        0.17660
C          0.07520       -0.00280        0.05090
C          0.06760       -0.76890       -1.08960
N          0.02480       -2.09470       -0.67950
C          0.00600       -2.17430        0.66910
C          0.03620       -0.88250        1.18080
C          0.02870       -0.52590        2.59140
O         -0.00560       -1.32760        3.50450
H          0.13420        1.75090       -0.69790
H          0.08820       -0.50170       -2.13310
H          0.01010       -2.88220       -1.30390
H         -0.02710       -3.11440        1.19400
H          0.05690        0.56600        2.79190
