20
gdb 14772	12.58067	0.55577	0.54762	2.9589	74.36	-0.2531	-0.0248	0.2283	2010.492	0.173842	-386.145799	-386.135627	-386.134683	-386.182537	33.755
C          0.06910        1.49840        0.12360
C         -0.02710       -0.02700        0.04410
C         -1.46790       -0.51680        0.00510
O         -1.46640       -1.92900       -0.07290
C         -2.75730       -2.48690       -0.11840
C         -2.61520       -4.00440       -0.24260
C         -3.93570       -4.71650       -0.06330
O         -4.41520       -5.49160       -0.84930
H          1.11270        1.82440        0.15130
H         -0.40400        1.97460       -0.74230
H         -0.42280        1.88420        1.02340
H          0.48890       -0.39530       -0.84990
H          0.47310       -0.48560        0.90470
H         -2.01170       -0.18490        0.90690
H         -1.99670       -0.08760       -0.86370
H         -3.32380       -2.22980        0.79440
H         -3.32660       -2.08550       -0.97350
H         -2.17780       -4.28460       -1.20340
H         -1.94110       -4.33970        0.55810
H         -4.46200       -4.47260        0.89030
