16
gdb 16508	3.89046	2.42707	1.87378	1.6113	68.28	-0.2208	0.0019	0.2227	745.7651	0.131073	-346.559053	-346.552791	-346.551846	-346.588924	25.72
C         -0.03080        1.49220        0.04260
C         -0.00820       -0.01070       -0.07210
C          0.95180       -0.73210       -0.94520
C          0.53780       -1.99030       -1.15710
C         -0.67770       -2.21500       -0.29870
O         -0.16270       -2.20560        1.10790
C         -0.49320       -0.84310        1.18630
C         -1.29770       -0.80680       -0.06270
H          0.93450        1.88030        0.38560
H         -0.25870        1.96360       -0.92040
H         -0.79120        1.82310        0.75830
H          1.89170       -0.30220       -1.27230
H          1.07790       -2.77860       -1.66450
H         -1.30520       -3.08840       -0.46640
H         -0.58440       -0.39450        2.16880
H         -2.28570       -0.43820       -0.31110
