14
gdb 1968	6.9034	1.67937	1.47296	1.2437	55.23	-0.2659	0.021	0.2869	807.6631	0.113694	-361.707841	-361.701076	-361.700132	-361.738859	24.5
O         -0.02390        1.51420        0.03290
C          0.01480        0.15410       -0.34440
C         -1.28110       -0.55030        0.00120
C         -1.28950       -2.09150        0.03550
C         -1.49560       -1.90400        1.52450
N         -1.63240       -2.67330        2.50260
O         -1.49360       -0.52090        1.46060
H         -0.21570        1.53390        0.97790
H          0.17110        0.12630       -1.42860
H          0.85420       -0.37960        0.13060
H         -2.13130       -0.07700       -0.49710
H         -2.11600       -2.58040       -0.48140
H         -0.35000       -2.57720       -0.23710
H         -1.75740       -2.15350        3.37290
