16
gdb 8133	4.08264	1.70289	1.43384	2.4195	64.05	-0.2415	-0.019	0.2225	877.8602	0.130184	-383.75686	-383.749744	-383.748799	-383.788031	27.918
O         -0.08810        1.42680       -0.22620
C         -0.01560        0.05710        0.02860
C         -0.25630       -0.92090       -1.09420
C         -1.29610       -0.74390       -0.00050
C         -1.28610       -1.74730        1.13370
C          0.14250       -1.69390        1.70300
O          0.63830       -2.51630        2.42600
C          0.83280       -0.41840        1.19330
H          0.71500        1.68890       -0.68950
H         -0.49850       -0.48890       -2.05860
H          0.31720       -1.84330       -1.13890
H         -2.21950       -0.24450       -0.26730
H         -1.97950       -1.45540        1.93320
H         -1.53840       -2.77360        0.84940
H          1.88330       -0.62010        0.96240
H          0.80650        0.33320        1.99310
