15
gdb 1063	6.83457	1.8199	1.57283	0.8155	62.32	-0.2185	0.0238	0.2423	799.0433	0.126187	-308.55123	-308.54462	-308.543676	-308.582129	24.173
C          0.10590        1.55030        0.14890
C         -0.10220        0.04350       -0.07700
C          0.65250       -0.48960       -1.25950
C          0.13390       -0.97900       -2.41800
O          1.11880       -1.36140       -3.27690
C          2.29770       -1.11000       -2.65110
C          2.08110       -0.57890       -1.42150
H          1.16310        1.78340        0.31050
H         -0.23030        2.12460       -0.71980
H         -0.45220        1.89540        1.02500
H          0.20130       -0.49900        0.82770
H         -1.17040       -0.16130       -0.21060
H         -0.87510       -1.11990       -2.77050
H          3.18530       -1.36450       -3.20670
H          2.83620       -0.28700       -0.70750
