14
gdb 1406	5.30345	1.57365	1.28305	3.0734	58.21	-0.2731	-0.0423	0.2308	884.2781	0.111624	-324.607903	-324.600119	-324.599175	-324.640346	26.382
C         -0.11380        1.66330        0.21120
C          0.01080        0.16500       -0.11640
C          0.75270       -0.64020        0.96840
C          2.13710       -0.20660        1.13040
N          3.22990        0.15260        1.24230
C         -1.36290       -0.43060       -0.36440
O         -1.80600       -1.39500        0.20370
H          0.87590        2.11660        0.30440
H         -0.65630        2.19240       -0.57810
H         -0.65060        1.81530        1.15340
H          0.55660        0.07370       -1.06730
H          0.23110       -0.54090        1.92660
H          0.73240       -1.70570        0.72120
H         -1.95870        0.10990       -1.13430
