16
gdb 19939	3.72492	2.39501	1.93825	3.0193	62.41	-0.2402	0.0635	0.3036	730.6801	0.132808	-383.707001	-383.701084	-383.70014	-383.736889	23.706
C          0.34240        1.55720        0.25590
O          1.46000        1.42650       -0.65410
C          1.29550       -0.00350       -0.71300
C          2.26880       -0.78410        0.15680
O          2.44000       -0.19290        1.45030
C          1.55380       -1.30790        1.33810
C          0.08970       -0.90320        1.29910
C         -0.02450        0.06180        0.10290
H          0.66760        1.85190        1.25930
H         -0.39690        2.27370       -0.12040
H          1.27550       -0.37480       -1.74370
H          3.15470       -1.25540       -0.26130
H          1.86760       -2.20830        1.86220
H         -0.53400       -1.79130        1.14610
H         -0.22380       -0.44490        2.24370
H         -0.93690       -0.09550       -0.47300
