18
gdb 14980	4.26453	1.495	1.16356	2.2964	69.27	-0.2491	0.0185	0.2676	1022.6571	0.154976	-384.942682	-384.935073	-384.934129	-384.974584	28.947
O          0.02550        1.41170        0.07380
C          0.04580        0.00150        0.00940
C         -1.36320       -0.57650       -0.02740
C         -1.40940       -2.10490       -0.08860
C         -2.79170       -2.59940        0.25070
C         -3.69560       -1.81050        0.82570
C         -3.37880       -0.39460        1.21940
O         -1.99410       -0.10570        1.16490
H         -0.59860        1.62600        0.77800
H          0.58550       -0.27650       -0.90210
H          0.58270       -0.43570        0.86780
H         -1.89370       -0.15960       -0.89950
H         -1.12330       -2.43990       -1.09380
H         -0.66910       -2.53480        0.60140
H         -3.03630       -3.62810        0.00040
H         -4.70230       -2.16100        1.03640
H         -3.94670        0.31130        0.58550
H         -3.68720       -0.20620        2.25490
