18
gdb 9659	4.39814	1.10235	1.04245	3.0795	70.1	-0.2483	-0.0152	0.2332	1166.8358	0.151405	-384.936376	-384.927245	-384.926301	-384.97029	32.463
C         -0.03710        1.57640       -0.09170
C         -0.00830        0.06890        0.05020
C          1.29340       -0.71200       -0.13070
C          0.67280       -0.64200        1.22290
C          1.30990        0.12680        2.35240
O          2.22620       -0.75120        2.99210
C         -1.22220       -0.62900       -0.44730
O         -2.18440       -0.08040       -0.92550
H          0.91660        2.03070        0.18490
H         -0.25640        1.84710       -1.12830
H         -0.82400        2.01600        0.52870
H          1.26380       -1.65090       -0.67370
H          2.17850       -0.11300       -0.31800
H          0.17670       -1.54730        1.56520
H          1.82120        1.02160        1.96860
H          0.53220        0.46790        3.05390
H          2.57040       -0.30630        3.77240
H         -1.18360       -1.74010       -0.34720
