19
gdb 9350	7.49615	0.77288	0.71559	1.9911	69.18	-0.2445	0.0177	0.2622	1601.0586	0.164024	-402.234447	-402.22437	-402.223426	-402.271205	33.692
C         -0.05080        1.45230        0.09340
C         -0.00750       -0.07070       -0.05970
C          0.78220       -0.49350       -1.28730
O          0.76840       -1.93390       -1.34860
C          1.42560       -2.48960       -2.38210
O          2.00730       -1.86290       -3.23280
C          1.33510       -4.01360       -2.33180
N          2.01680       -4.70870       -3.40910
H          0.95570        1.87220        0.19540
H         -0.52180        1.92760       -0.77390
H         -0.62210        1.73930        0.98050
H          0.44440       -0.52810        0.82800
H         -1.02420       -0.47300       -0.13570
H          0.34640       -0.09340       -2.20920
H          1.82090       -0.14870       -1.24160
H          1.73180       -4.34290       -1.36420
H          0.27360       -4.28770       -2.32240
H          1.65210       -4.37580       -4.29770
H          2.99410       -4.42910       -3.41420
