16
gdb 18932	3.60869	2.48999	1.99006	0.7877	62.56	-0.2358	0.0635	0.2993	715.9691	0.132813	-383.68629	-383.680438	-383.679494	-383.715876	24.428
O         -0.08150        1.40970       -0.02510
C         -0.00930        0.00050       -0.06880
C         -1.38530       -0.63230       -0.34660
C         -1.78710        0.04490       -1.68490
C         -0.61990       -0.76920       -2.26990
C         -0.84100       -1.86790       -1.21090
O          0.56400       -2.04140       -0.96880
C          0.63990       -0.62920       -1.32980
H          0.80400        1.74610        0.14270
H          0.46880       -0.41120        0.82790
H         -2.07960       -0.74290        0.48350
H         -2.74110       -0.33260       -2.06400
H         -1.76600        1.13320       -1.72580
H         -0.45330       -0.96580       -3.32730
H         -1.42660       -2.78040       -1.30960
H          1.62520       -0.30150       -1.66170
