18
gdb 6565	3.08967	1.98908	1.52458	1.3698	68.21	-0.2568	0.0739	0.3307	890.4348	0.15256	-384.896263	-384.88814	-384.887196	-384.927979	31.575
C         -0.00190        1.47260        0.03330
C          0.04270       -0.02970        0.02460
C          0.61680       -0.96140       -1.08880
C          0.07630       -1.90800        0.02350
O         -0.00880       -3.28910        0.03020
C          0.73870       -0.96270        1.07080
C         -1.17340       -0.99790        0.06990
O         -1.95350       -0.94250        1.23680
H          1.00690        1.89870        0.01960
H         -0.54130        1.85600       -0.83970
H         -0.51150        1.83800        0.93080
H          0.09180       -0.96930       -2.04870
H          1.70160       -0.93270       -1.21960
H          0.88170       -3.65290        0.07710
H          1.83250       -0.93650        1.08090
H          0.31270       -0.96860        2.07340
H         -1.79880       -1.01230       -0.83430
H         -2.40390       -1.78820        1.33110
