11
gdb 244	9.62372	2.25349	1.84676	0.9137	45.91	-0.2768	-0.0235	0.2533	633.5112	0.083216	-322.464725	-322.458133	-322.457189	-322.495484	21.339
C         -0.01460        1.45320       -0.08290
C         -0.14480       -0.03590        0.08050
O         -0.43920       -0.62200        1.08470
O          0.12850       -0.65740       -1.11790
C          0.05960       -2.02790       -1.16470
N          0.30990       -2.59160       -2.26070
H          0.99700        1.70240       -0.41570
H         -0.70390        1.80290       -0.85670
H         -0.23140        1.94360        0.86490
H         -0.21420       -2.47200       -0.20760
H          0.22290       -3.60160       -2.15520
