20
gdb 14349	4.36463	1.55202	1.3343	1.8545	73.96	-0.2408	0.0792	0.32	991.3809	0.179117	-349.004829	-348.99744	-348.996496	-349.036598	28.735
C         -0.51450        1.47210       -0.01020
C          0.06730        0.06040        0.00730
C          0.83970       -0.33390       -1.27180
C          1.65890       -1.57220       -0.86510
C          3.19430       -1.47980       -0.95910
O          3.30840       -1.15790        0.44310
C          1.89720       -1.41720        0.66060
C          1.08790       -0.20220        1.13930
H          0.27820        2.21890       -0.13640
H         -1.22800        1.60050       -0.83130
H         -1.03940        1.69910        0.92380
H         -0.75980       -0.65410        0.13010
H          0.17640       -0.51700       -2.12230
H          1.50910        0.48830       -1.55740
H          1.21450       -2.50760       -1.20900
H          3.69730       -2.42640       -1.19760
H          3.60200       -0.68880       -1.60140
H          1.75850       -2.30920        1.28270
H          1.77410        0.64680        1.23900
H          0.60650       -0.35690        2.10930
