21
gdb 4034	3.60494	1.14669	0.966	0.616	78.27	-0.2384	0.0195	0.2579	1282.6275	0.185737	-366.238059	-366.227792	-366.226848	-366.273282	36.838
C         -0.08510        1.46350        0.15750
C          0.11320       -0.05150        0.04570
C          0.78760       -0.51290       -1.27150
C          2.22880       -0.00620       -1.39520
C          0.67210       -2.01980       -1.39950
C         -0.68390       -2.63780       -1.62700
N          1.74460       -2.70720       -1.30100
O          1.48960       -4.08700       -1.41120
H          0.86650        2.00250        0.16880
H         -0.67590        1.84780       -0.68190
H         -0.61650        1.71710        1.08010
H          0.71800       -0.41310        0.88700
H         -0.86330       -0.54100        0.14010
H          0.19810       -0.08820       -2.09930
H          2.68880       -0.35960       -2.32120
H          2.25620        1.08660       -1.39520
H          2.84400       -0.36890       -0.56720
H         -0.65050       -3.30180       -2.49610
H         -0.97700       -3.26010       -0.77480
H         -1.45020       -1.87670       -1.78680
H          2.37490       -4.45910       -1.34350
