13
gdb 68	7.66289	3.70925	2.79937	2.6921	46.58	-0.2469	-0.0188	0.2281	482.0475	0.112328	-232.364952	-232.358577	-232.357633	-232.394589	21.434
C         -0.02630        1.53880       -0.00780
C          0.01470        0.00100        0.00170
C          0.74740       -0.53390        1.24420
C         -1.40210       -0.53860       -0.01560
O         -1.87620       -1.23580       -0.87400
H          0.98820        1.94630        0.03710
H         -0.50730        1.92150       -0.91290
H         -0.57760        1.92360        0.85800
H          0.50580       -0.36420       -0.90620
H          0.22960       -0.23910        2.16430
H          0.81690       -1.62560        1.22970
H          1.76270       -0.12850        1.29050
H         -2.00860       -0.22790        0.87120
