17
gdb 1537	5.22876	1.2906	1.08646	1.8599	66.44	-0.259	0.0562	0.3151	1065.1416	0.145855	-309.681686	-309.672878	-309.671934	-309.714956	31.099
C         -0.06960        1.58260       -0.08140
C         -0.00990        0.04370        0.02100
C          0.78180       -0.45190        1.25340
C          2.26040       -0.08030        1.23140
O          2.87250       -0.72480        2.33830
C         -1.36010       -0.51880        0.03210
C         -2.47440       -0.96920        0.05970
H          0.93090        2.00860       -0.19640
H         -0.66980        1.88730       -0.94240
H         -0.52590        2.00910        0.81720
H          0.49980       -0.33400       -0.87770
H          0.32250       -0.05850        2.16720
H          0.71050       -1.54270        1.31000
H          2.71070       -0.40910        0.27910
H          2.38840        1.01100        1.29260
H          3.79620       -0.45930        2.36790
H         -3.45590       -1.37390        0.07510
