17
gdb 11885	4.46582	1.54405	1.31881	3.569	68.12	-0.2348	-0.0169	0.2179	943.4519	0.143054	-363.870264	-363.863126	-363.862182	-363.901845	27.58
O          0.07870        0.02250        0.20990
C          0.00770        1.21860        0.10900
C         -1.17430        2.08790        0.56710
C         -0.93580        3.45690       -0.09190
C          0.58620        3.54370       -0.20820
C          1.28520        4.77920       -0.61560
N          1.36820        4.30670        0.78300
C          1.07500        2.13630       -0.50440
H         -2.12690        1.61200        0.32520
H         -1.11580        2.15920        1.66090
H         -1.38700        3.47650       -1.09160
H         -1.35700        4.29590        0.47010
H          2.21710        4.72470       -1.17230
H          0.68260        5.65840       -0.83310
H          0.74720        4.86460        1.36540
H          2.06520        1.92800       -0.09460
H          1.10900        1.93630       -1.58370
