18
gdb 16524	3.46426	2.34406	1.79896	1.1689	70.01	-0.2435	0.0774	0.321	788.7911	0.155948	-347.781701	-347.775188	-347.774244	-347.811789	27.173
O         -0.06840        1.32520       -0.01070
C          0.01790       -0.06770       -0.03360
C          1.04810       -0.73220       -0.95070
C          0.37200       -2.07120       -1.35350
C         -0.74030       -2.25440       -0.30740
C         -0.14720       -2.28710        1.14260
C         -0.41430       -0.78750        1.24020
C         -1.27430       -0.82340       -0.02150
H          0.65410        1.65940        0.53160
H          1.23380       -0.08630       -1.81360
H          2.00970       -0.88950       -0.44840
H         -0.06760       -1.98680       -2.35340
H          1.06980       -2.91460       -1.36970
H         -1.46050       -3.03760       -0.54350
H         -0.78690       -2.85130        1.82680
H          0.88500       -2.64230        1.25120
H         -0.58280       -0.21070        2.14330
H         -2.24590       -0.39480       -0.22600
