18
gdb 10976	2.7344	2.37827	1.94714	1.4335	71.72	-0.2344	0.0035	0.2379	806.9722	0.154543	-347.777414	-347.770366	-347.769422	-347.808013	28.901
C         -0.03480        1.53950        0.04950
C         -0.03220        0.02940       -0.00090
C          0.35970       -0.80230       -1.27400
C         -0.35920       -1.95450       -0.49850
C          0.53140       -2.04310        0.74590
C          0.74290       -0.76100        1.06830
C         -1.36380       -0.82940       -0.04080
O         -2.16030       -0.97570        1.08810
H          0.98210        1.94590        0.00730
H         -0.59810        1.96250       -0.78860
H         -0.49940        1.89730        0.97510
H         -0.16530       -0.48360       -2.18100
H          1.42640       -0.93280       -1.46590
H         -0.68760       -2.87470       -0.97990
H          0.88630       -2.94580        1.22340
H          1.31620       -0.33370        1.88010
H         -2.02820       -0.51210       -0.85010
H         -1.57330       -1.26270        1.80160
