17
gdb 10816	4.66164	1.5209	1.21247	3.972	72.39	-0.2262	-0.0485	0.1777	990.1462	0.143356	-363.887402	-363.87998	-363.879036	-363.919019	28.309
C         -0.08060        1.55080        0.00220
C         -0.00470        0.01980        0.00870
N          0.64330       -0.44430       -1.21340
C          0.88960       -1.88100       -1.24720
C          1.78830       -2.29650       -0.08530
O          2.53270       -3.25220       -0.15790
C          1.61440       -1.50940        1.15100
C          0.75250       -0.48750        1.20600
H          0.92340        1.97990       -0.05270
H         -0.65140        1.90180       -0.86380
H         -0.57850        1.92110        0.90340
H         -1.04290       -0.36810        0.10550
H          0.10050       -0.16010       -2.02130
H         -0.03070       -2.49660       -1.17450
H          1.38800       -2.15240       -2.18090
H          2.17290       -1.84570        2.01890
H          0.56610        0.02730        2.14580
