20
gdb 14362	3.87615	2.091	1.80812	0.285	78.54	-0.2612	0.0871	0.3483	828.6408	0.180677	-311.814642	-311.808256	-311.807312	-311.845086	26.829
C         -0.05920        1.53850        0.08690
C          1.46360        1.26780        0.06070
C          1.18220        0.06430        1.03470
C          0.09580       -0.01270       -0.07910
C         -0.92680       -0.91320       -0.72820
C         -0.89190       -0.39040       -2.21150
C          0.45340        0.41320       -2.43330
C          1.21210        0.25120       -1.10760
H         -0.47970        1.87940        1.03740
H         -0.48380        2.10080       -0.74630
H          2.26750        1.99980        0.15920
H          1.92560       -0.73830        1.04930
H          0.85400        0.32750        2.04420
H         -0.60300       -1.95920       -0.67930
H         -1.93130       -0.85650       -0.29850
H         -0.98090       -1.22100       -2.91710
H         -1.74950        0.26330       -2.39520
H          1.02610        0.00350       -3.26920
H          0.23640        1.45350       -2.68820
H          1.96700       -0.54100       -1.16680
