15
gdb 2523	3.79419	2.07868	1.48699	5.3542	61.07	-0.2412	-0.0181	0.2232	833.0331	0.124257	-341.853951	-341.846031	-341.845087	-341.886664	26.857
C          0.04750        1.52400        0.00220
C          0.03910       -0.00410       -0.06550
N          0.68570       -0.53680       -1.26950
C          2.08390       -0.61300       -1.26070
N          2.79900       -0.93630       -2.25520
C         -0.12290       -0.90410       -2.34420
O          0.23290       -1.32620       -3.41000
H          1.07000        1.91410       -0.00360
H         -0.48150        1.95430       -0.85340
H         -0.44230        1.86690        0.91890
H          0.53730       -0.42940        0.81200
H         -0.98890       -0.37630       -0.04740
H          2.47250       -0.35840       -0.26610
H          3.78040       -0.93470       -1.97940
H         -1.19120       -0.76190       -2.07960
