20
gdb 13982	5.12593	1.20201	1.11433	1.1551	76.27	-0.241	0.0886	0.3295	1153.8503	0.176866	-348.963976	-348.955636	-348.954692	-348.997088	30.778
C         -0.66570        1.41020       -0.51600
O         -0.86950        0.02230       -0.61490
C         -0.59470       -0.66310        0.58860
C         -0.81470       -2.13290        0.38570
C         -0.51640       -2.83860       -0.90550
C         -1.92470       -2.86860       -0.36800
C         -2.03130       -3.90480        0.75700
C         -0.89580       -3.15370        1.53030
H         -0.90060        1.84640       -1.49000
H         -1.31910        1.86680        0.24460
H          0.37780        1.65330       -0.25940
H          0.44630       -0.47030        0.90900
H         -1.24890       -0.28960        1.39750
H         -0.36580       -2.17780       -1.75150
H          0.08720       -3.74480       -0.91620
H         -2.75150       -2.45290       -0.93100
H         -2.98340       -3.87010        1.29120
H         -1.83070       -4.94330        0.47240
H          0.02170       -3.71380        1.74040
H         -1.25640       -2.71780        2.46630
