15
gdb 9658	3.50778	1.39847	1.31223	3.8849	62.44	-0.2753	0.0052	0.2805	975.7959	0.117733	-399.785524	-399.777257	-399.776313	-399.818312	29.996
O          0.18640        0.65710        0.78540
C         -0.19650        0.20530       -0.49740
C         -1.54300       -0.49700       -0.48180
C         -1.78390       -1.70230       -1.35380
C         -1.60100       -1.87320        0.14540
O         -0.38110       -2.34820        0.64140
C         -2.75370       -2.23580        0.94090
N         -3.66700       -2.55380        1.57560
H          0.33790       -0.12980        1.32140
H         -0.26280        1.09420       -1.13320
H          0.56030       -0.45900       -0.93550
H         -2.39380        0.14270       -0.27180
H         -2.76910       -1.86960       -1.77270
H         -0.95450       -2.05060       -1.96070
H         -0.36420       -3.30930        0.56720
