15
gdb 10891	3.13036	1.94895	1.53951	4.5842	61.94	-0.228	-0.027	0.201	855.7856	0.117993	-399.765832	-399.758299	-399.757355	-399.79752	28.161
C         -0.02990        1.52170        0.06160
C          0.12760        0.03630       -0.02000
N         -0.80040       -0.91130        0.61060
C          0.66380       -0.94600        0.99140
C          1.29660       -1.76280       -0.10980
O          2.06150       -2.68000       -0.14570
C          0.70360       -0.78520       -1.19870
O         -0.18410       -1.25150       -2.16640
H          0.90200        2.02900       -0.20720
H         -0.80890        1.86570       -0.62740
H         -0.30940        1.83710        1.07270
H         -1.28060       -0.43090        1.37210
H          0.96560       -0.79940        2.02080
H          1.52560       -0.27370       -1.71130
H         -0.92400       -1.64090       -1.68130
