20
gdb 19839	3.12632	2.35037	1.69217	0.2818	76.79	-0.2377	0.0792	0.3168	847.0506	0.180925	-311.857118	-311.850577	-311.849633	-311.887277	27.806
C         -0.01390        1.53840       -0.09460
C          1.30760        0.81120       -0.00930
C          2.15060        0.84520        1.26260
C          2.13660       -0.50140        2.01370
C          0.73630       -1.02020        2.29660
C         -0.37840       -0.07180        2.66410
C         -0.35670       -0.70860        1.29260
C          0.00620        0.03570        0.03340
H         -0.32610        2.12010        0.76700
H         -0.30950        1.96580       -1.04680
H          1.87450        0.73860       -0.93240
H          3.18420        1.10310        1.01170
H          1.80320        1.63980        1.93290
H          2.67020       -1.25070        1.41290
H          2.69580       -0.40020        2.95220
H          0.70770       -2.00150        2.76200
H         -1.13560       -0.41500        3.36080
H         -0.15570        0.98510        2.75650
H         -1.10180       -1.48280        1.13750
H         -0.24570       -0.51260       -0.86960
