16
gdb 7076	6.55607	0.88539	0.84234	2.142	66.75	-0.2535	-0.0419	0.2116	1302.3826	0.128057	-379.918912	-379.909973	-379.909029	-379.953253	30.374
C         -0.14250        1.58100       -0.00260
N         -0.04900        0.12420        0.06180
C          0.66220       -0.32540        1.24740
C          2.15200       -0.02420        1.13970
O          2.86610        0.18800        2.08210
C         -1.34720       -0.52260       -0.07950
C         -1.93440       -0.28600       -1.40450
N         -2.40980       -0.09720       -2.43980
H          0.86040        2.01510        0.03790
H         -0.60220        1.88170       -0.94700
H         -0.73320        2.00620        0.82890
H          0.28100        0.09130        2.19590
H          0.58070       -1.41940        1.31680
H          2.53350       -0.04820        0.09430
H         -1.22200       -1.60370        0.04470
H         -2.08400       -0.19610        0.67930
