18
gdb 10161	3.69925	1.12189	0.92421	5.4651	72.38	-0.2405	-0.0173	0.2232	1275.2738	0.152693	-381.142712	-381.133448	-381.132504	-381.177559	31.74
C         -0.06650        1.50620       -0.00860
C         -0.00910       -0.02310       -0.01290
C          0.72800       -0.57350       -1.23890
N          0.78960       -2.03730       -1.27810
C         -0.33680       -2.71090       -1.76690
N         -0.49010       -3.96850       -1.75950
C          1.94390       -2.66040       -0.80580
O          2.15520       -3.83980       -0.73290
H          0.93810        1.94310        0.00140
H         -0.58480        1.88830       -0.89510
H         -0.59810        1.87670        0.87210
H          0.49150       -0.38760        0.89220
H         -1.02430       -0.43790        0.01070
H          0.24940       -0.21950       -2.15910
H          1.75370       -0.19210       -1.25980
H         -1.06630       -1.99320       -2.16400
H         -1.38450       -4.20130       -2.18950
H          2.68720       -1.89600       -0.49820
