24
gdb 5892	3.87346	0.96653	0.94974	0.8989	82.83	-0.2497	0.0789	0.3286	1423.0133	0.220119	-351.416447	-351.405627	-351.404683	-351.452117	39.121
C         -0.03310        1.50810        0.01050
C         -0.01240       -0.01110        0.00210
O         -1.34270       -0.48280        0.01230
C         -1.44060       -1.89090        0.00570
C         -2.91730       -2.31420        0.01750
C         -3.62270       -1.75970       -1.23310
C         -2.97140       -3.85140        0.00980
C         -3.59860       -1.77320        1.28730
H          0.98690        1.90380        0.00290
H         -0.56030        1.88970       -0.86860
H         -0.54340        1.88020        0.90360
H          0.51710       -0.38590       -0.89080
H          0.53400       -0.39550        0.88070
H         -0.94050       -2.30150       -0.88940
H         -0.92350       -2.31100        0.88660
H         -3.16810       -2.15400       -2.14910
H         -4.68140       -2.04020       -1.23850
H         -3.55390       -0.66970       -1.26550
H         -2.47210       -4.27450        0.88880
H         -4.00930       -4.20020        0.01780
H         -2.48890       -4.26490       -0.88310
H         -3.52910       -0.68360        1.33010
H         -4.65700       -2.05400        1.31000
H         -3.12650       -2.17730        2.19020
