13
gdb 12219	4.2226	1.52376	1.18886	4.4768	57.51	-0.2561	-0.0476	0.2085	944.2394	0.094346	-435.763251	-435.75549	-435.754546	-435.795928	26.4
O         -0.00680        1.44280        0.17070
C          0.02420        0.04650        0.06090
C         -1.38440       -0.59150       -0.05890
N         -0.97220       -1.14130       -1.36990
C         -1.65670       -1.93550       -2.27570
O         -1.22040       -2.30910       -3.33130
C          0.29350       -0.51750       -1.35900
O          1.17580       -0.43850       -2.15760
H          0.85050        1.78120       -0.11280
H          0.65370       -0.42700        0.82690
H         -1.63090       -1.35230        0.68440
H         -2.17720        0.15630       -0.12930
H         -2.66790       -2.18980       -1.89900
