12
gdb 20498	9.6756	1.01055	0.92025	4.9998	71.38	-0.2549	-0.0585	0.1963	1187.4353	0.082929	-377.479547	-377.472201	-377.471257	-377.512823	24.771
C         -0.07460        1.46580        0.01090
C         -0.00830        0.01600        0.00280
C          0.04310       -1.18910       -0.00390
C          0.10930       -2.59020       -0.01180
C          1.15600       -3.47170       -0.02250
N          0.62080       -4.73140       -0.02610
N         -0.63830       -4.67980       -0.01860
O         -1.02520       -3.31060       -0.00920
H          0.92830        1.90530        0.00260
H         -0.61420        1.83830       -0.86670
H         -0.59550        1.82930        0.90350
H          2.21620       -3.29030       -0.02750
