20
gdb 12867	2.56086	2.2901	1.73701	0.217	79.56	-0.2211	0.0241	0.2452	891.3397	0.177424	-311.876721	-311.868838	-311.867894	-311.908223	31.064
C         -0.09590        1.55830        0.01200
C          0.04920        0.05480        0.06600
C          1.34430       -0.70060       -0.23770
C          2.62200        0.05580       -0.13140
C          2.83350        0.50310        1.10950
C          1.73160        0.07770        2.05520
C          0.74790       -0.70530        1.17000
C          0.08690       -1.92570        1.76750
H          0.83420        2.07050        0.26910
H         -0.38630        1.88400       -0.99310
H         -0.87240        1.89980        0.70650
H         -0.83020       -0.46930       -0.30530
H          1.28450       -1.56770       -0.88860
H          3.27340        0.23230       -0.98040
H          3.66940        1.11780        1.42480
H          2.11870       -0.55640        2.86540
H          1.25740        0.93820        2.54710
H         -0.57810       -1.65420        2.59680
H         -0.51630       -2.45630        1.02370
H          0.83050       -2.63030        2.15840
