16
gdb 550	17.20216	1.14331	1.10143	0.0002	53.58	-0.2614	0.0773	0.3388	1019.4799	0.141711	-308.757991	-308.749984	-308.74904	-308.79022	26.875
O         -0.06120        1.43400        0.01020
C          0.01770        0.01610        0.00200
C         -1.40210       -0.53370        0.01250
C         -1.44380       -2.06340        0.00480
C         -2.86360       -2.61330        0.01540
O         -2.78470       -4.03110        0.00710
H          0.83400        1.78470        0.00330
H          0.55030       -0.34860       -0.89190
H          0.56720       -0.35800        0.88160
H         -1.91690       -0.14190        0.89860
H         -1.93370       -0.13250       -0.85930
H         -0.92890       -2.45530       -0.88120
H         -0.91220       -2.46460        0.87670
H         -3.39620       -2.24850        0.90920
H         -3.41300       -2.23910       -0.86420
H         -3.67980       -4.38190        0.01390
