12
gdb 697	8.56689	4.1967	4.11734	1.8496	49.26	-0.2321	0.0778	0.3099	399.7024	0.097292	-269.12958	-269.125375	-269.124431	-269.156785	16.757
C         -0.09450        1.63000        0.01070
C          1.42180        1.33810       -0.00440
C          1.25420        0.06100        0.87830
O          1.99900       -0.81240       -0.02110
C          1.23840        0.07050       -0.89760
C         -0.03790        0.08680        0.00190
H         -0.49300        2.09950        0.91420
H         -0.50910        2.10900       -0.88060
H          2.27170        2.02030       -0.00840
H          1.36980       -0.06830        1.95430
H          1.33470       -0.04730       -1.97680
H         -0.84200       -0.64890        0.00520
