16
gdb 17526	4.66042	1.76885	1.64786	2.2304	63.15	-0.2351	0.062	0.2971	818.7967	0.130731	-383.663924	-383.657202	-383.656258	-383.694847	26.352
O         -0.01350        1.43010       -0.10810
C          0.08010        0.01900       -0.02430
C         -1.28270       -0.58970        0.12270
C         -2.22580       -0.37280        1.33760
C         -2.97960       -1.58950        0.80260
C         -2.84120       -1.47950       -0.72530
O         -2.15130       -0.26560       -1.01910
C         -1.74340       -2.09980        0.06380
H         -0.63800        1.62110       -0.81810
H          0.57790       -0.41000       -0.90800
H          0.69270       -0.21070        0.85380
H         -1.72080       -0.59710        2.28070
H         -2.73350        0.59420        1.39030
H         -3.75890       -2.17220        1.27660
H         -3.54010       -1.87800       -1.44840
H         -1.23120       -3.05100        0.03210
