16
gdb 2016	5.66943	2.13918	2.06663	1.7476	60.99	-0.243	0.0781	0.3211	701.4155	0.137544	-325.687098	-325.680635	-325.679691	-325.717535	24.235
C         -0.04270        1.37130        0.01370
O          0.03320       -0.04240       -0.02230
C          0.65260       -0.54340       -1.14540
C          2.10890       -0.36600       -1.66110
N          1.49660       -1.35200       -2.66610
C          0.86750       -2.03200       -1.43580
C          0.26130       -0.44040       -2.64690
H          0.95540        1.83150        0.00500
H         -0.61800        1.76840       -0.83460
H         -0.54910        1.64150        0.94230
H          2.39680        0.58650       -2.11280
H          2.92070       -0.79590       -1.06890
H          1.58900       -2.57780       -0.82300
H         -0.00710       -2.64200       -1.67470
H         -0.65350       -0.93970       -2.97600
H          0.41680        0.50680       -3.16930
