13
gdb 1459	6.35201	1.31368	1.20178	3.4324	52.38	-0.2521	-0.0406	0.2114	944.5711	0.098102	-381.600777	-381.59277	-381.591825	-381.634359	26.249
O          0.09320        1.33240        0.31390
C         -0.06890       -0.04730        0.14910
C         -1.44770       -0.34430       -0.41910
O         -2.26330        0.50660       -0.66590
C         -1.75330       -1.82850       -0.63310
C         -3.00300       -2.23050        0.13970
O         -3.07940       -3.21640        0.82240
H          0.96900        1.49180        0.67760
H          0.67120       -0.49260       -0.54060
H          0.01760       -0.61240        1.09540
H         -1.98010       -1.95340       -1.70020
H         -0.92800       -2.49160       -0.36400
H         -3.84900       -1.52310        0.01980
