12
gdb 4410	3.90647	2.08377	1.3591	3.7414	61.07	-0.2321	-0.0429	0.1892	820.2504	0.08525	-414.735888	-414.72918	-414.728235	-414.766747	24.728
N          0.04260        1.31870       -0.05870
C         -0.05560       -0.02470       -0.02310
N         -1.21880       -0.61450       -0.00730
C         -1.16910       -1.97610       -0.00280
C         -0.02790       -2.71830       -0.00970
C          1.24810       -2.06660       -0.01970
O          2.35960       -2.50760       -0.02210
O          1.13660       -0.62660       -0.02560
H          0.93950        1.75550        0.05970
H         -0.79980        1.85530        0.05120
H         -2.13810       -2.46870        0.00830
H         -0.03520       -3.79900       -0.00470
