15
gdb 18094	3.98252	2.37716	1.7539	1.6762	64.85	-0.2477	0.005	0.2526	743.1796	0.122393	-362.691228	-362.685403	-362.684458	-362.721236	22.867
C          0.01620        1.57770        0.16240
C          1.43260        2.00390       -0.12910
C          2.21690        0.99900       -0.51610
C          1.47250       -0.30600       -0.54740
O          2.01350       -1.26660        0.41290
C          1.10500       -1.30600        1.41330
N          0.01830       -0.65840        1.32360
C          0.05930        0.03450        0.02210
H         -0.31450        1.86880        1.16470
H         -0.68870        2.02950       -0.54690
H          1.75260        3.03660       -0.03870
H          3.26520        1.07270       -0.77990
H          1.48840       -0.80510       -1.51970
H          1.39140       -1.93060        2.25280
H         -0.76360       -0.33230       -0.59760
