12
gdb 22	8.67553	8.00568	4.75542	1.4259	38.58	-0.2612	0.074	0.3351	318.3721	0.107673	-194.267232	-194.261748	-194.260804	-194.294663	19.052
C         -0.03320        1.54780       -0.00440
C         -0.01110        0.01860        0.01680
C          0.70940       -0.53600        1.23980
O         -1.33220       -0.51710        0.05240
H          0.98220        1.95720       -0.03180
H         -0.56390        1.92090       -0.88850
H         -0.54080        1.93340        0.88580
H          0.51040       -0.33770       -0.88820
H          0.22240       -0.18790        2.15650
H          0.68240       -1.62890        1.23310
H          1.75430       -0.21250        1.25520
H         -1.81820       -0.15580       -0.69550
