20
gdb 7597	2.69233	1.57534	1.42255	1.0761	71.04	-0.2516	0.07	0.3215	1033.4069	0.173767	-386.130465	-386.120698	-386.119754	-386.164581	35.692
C          0.14430        1.28530       -0.48480
C          0.04270       -0.01740        0.30910
O          0.47150        0.14050        1.66030
C         -1.36260       -0.62030        0.25410
C         -2.43680        0.13520        1.01130
O         -1.75280       -1.07550       -1.05360
C         -1.57420       -2.05590       -0.01870
C         -0.50850       -3.10290       -0.21650
H          1.17530        1.64920       -0.47520
H         -0.16590        1.12380       -1.52070
H         -0.49590        2.06700       -0.05870
H          0.74260       -0.73470       -0.12610
H          0.08940        0.95680        1.99890
H         -2.53710        1.16240        0.64520
H         -3.40410       -0.35660        0.88700
H         -2.20180        0.17010        2.07960
H         -2.51990       -2.46530        0.34610
H          0.41440       -2.68680       -0.62350
H         -0.28060       -3.59640        0.73430
H         -0.86540       -3.86770       -0.91440
