16
gdb 4049	4.5488	1.3829	1.07704	2.8045	75.27	-0.1832	-0.0079	0.1752	1066.8758	0.13065	-379.900911	-379.892938	-379.891994	-379.933077	29.551
C         -0.02360        1.48760        0.07190
C         -0.01330        0.00150       -0.06270
C          0.02890       -0.74480       -1.19380
C          0.03670       -2.14310       -0.81580
C          0.09830       -2.18780        0.70600
N         -0.11010       -0.78040        1.08320
N         -0.01300       -3.22280       -1.50370
O         -0.06990       -2.92600       -2.88610
H          0.82980        1.83590        0.66770
H          0.02700        1.96720       -0.90690
H         -0.93200        1.82520        0.58340
H         -0.00150       -0.37660       -2.20550
H         -0.67020       -2.83680        1.13540
H          1.07670       -2.54910        1.04820
H          0.37180       -0.45030        1.90730
H         -0.11400       -3.80520       -3.27420
