20
gdb 6530	3.18304	1.58263	1.26756	2.2028	71.23	-0.2554	0.0796	0.335	1045.4109	0.173771	-386.131731	-386.121948	-386.121004	-386.16587	35.72
C          0.18940        1.42640       -0.20740
C          0.00360       -0.04760        0.10180
C         -1.13250       -0.66640       -0.69400
O          1.21700       -0.82670        0.14590
C          0.48890       -0.62620        1.38050
C          1.20820        0.19480        2.43450
C         -0.07220       -1.92540        1.94390
O          0.98600       -2.81170        2.27530
H          1.00990        1.87430        0.35160
H          0.39690        1.55510       -1.27520
H         -0.72820        1.98020        0.02020
H         -1.02850       -0.39730       -1.75070
H         -1.13790       -1.75410       -0.62980
H         -2.10160       -0.28790       -0.35100
H          0.49080        0.70390        3.08770
H          1.81090       -0.47790        3.05140
H          1.87200        0.93810        1.99350
H         -0.61050       -1.72590        2.87680
H         -0.77500       -2.39730        1.24850
H          1.51640       -2.90080        1.47390
