16
gdb 16989	3.98632	2.22554	2.11647	2.4076	64.32	-0.2364	0.0432	0.2797	715.5662	0.132189	-383.613007	-383.607277	-383.606333	-383.642451	24.015
C          0.06880        1.57380       -0.15520
O          1.51980        1.52270        0.13300
C          1.21810        0.32730        0.93870
C          1.35900       -1.24340        0.93370
C         -0.24800       -1.15040        1.11400
C          0.00320        0.04410        0.11730
C          0.60400       -0.74230       -1.07160
O          1.51310       -1.64620       -0.40320
H         -0.44870        2.19920        0.58030
H         -0.12870        1.92600       -1.17100
H          0.99950        0.66110        1.95940
H          2.00760       -1.82100        1.59230
H         -0.78920       -2.02680        0.75020
H         -0.58160       -0.85930        2.10860
H         -0.15690       -1.31580       -1.61330
H          1.16250       -0.11410       -1.76990
