18
gdb 4829	4.30312	1.39894	1.13177	0.1285	76.35	-0.2017	0.0265	0.2282	1102.7218	0.153629	-347.854034	-347.84574	-347.844795	-347.887101	30.152
C         -0.32210        1.46280       -0.19060
C          0.13330        0.00630        0.00700
C          0.92980       -0.52770       -1.13310
C          2.21100       -0.96270       -1.26560
C          2.37510       -1.34500       -2.63890
C          1.18270       -1.11580       -3.25020
C          0.69020       -1.29640       -4.64080
O          0.29180       -0.61670       -2.34130
H          0.53900        2.13020       -0.29350
H         -0.93080        1.55780       -1.09390
H         -0.91950        1.80190        0.66120
H          0.74570       -0.07740        0.91050
H         -0.74930       -0.62720        0.16780
H          2.95020       -1.00780       -0.48060
H          3.26340       -1.73970       -3.10750
H         -0.15690       -1.99100       -4.68330
H          0.35550       -0.34840       -5.07800
H          1.49060       -1.69650       -5.26730
