18
gdb 15808	5.45699	1.12114	1.02955	2.8319	70.33	-0.2419	0.0402	0.2821	1195.758	0.153657	-381.134145	-381.125243	-381.124299	-381.169273	31.018
C         -0.00300        1.24980        0.02340
C         -0.29490       -0.25070       -0.06740
N          0.05770       -0.83530       -1.35150
C          1.31850       -1.28730       -1.60980
O          2.20850       -1.34730       -0.78320
N          1.47370       -1.65630       -2.97630
C          2.52760       -2.60760       -3.28350
C          1.10020       -3.02220       -3.37170
H          1.06440        1.43680       -0.12110
H         -0.55800        1.81020       -0.73670
H         -0.29120        1.63720        1.00610
H          0.27950       -0.78810        0.69060
H         -1.35680       -0.44750        0.11660
H         -0.52550       -0.64360       -2.15040
H          3.08830       -2.39710       -4.18910
H          3.10930       -2.96780       -2.44070
H          0.72160       -3.68180       -2.59480
H          0.60450       -3.11250       -4.33420
