10
gdb 958	6.39619	2.93895	2.01369	1.4464	48.86	-0.2773	-0.0535	0.2238	570.3717	0.070515	-355.557059	-355.552144	-355.5512	-355.58575	17.897
O          0.10650        1.30090        0.12110
C          0.07020       -0.02730        0.06070
N          0.09080       -0.59320       -1.15180
C          0.05180       -1.92260       -1.12830
N         -0.00330       -2.68740       -0.03780
C         -0.01810       -1.99230        1.10310
N          0.01620       -0.66920        1.22710
H          0.14350        1.61890       -0.79240
H          0.06660       -2.42890       -2.09110
H         -0.06270       -2.56440        2.02730
