22
gdb 15620	2.69747	1.68399	1.14913	0.1469	85.8	-0.2147	0.0376	0.2523	1141.4538	0.200505	-313.104092	-313.094974	-313.09403	-313.137947	33.627
C         -0.26600        1.63430       -0.20430
C          0.06760        0.14780        0.02140
C          0.76220       -0.49380       -1.14620
C          2.03180       -0.91850       -1.22440
C          3.09710       -0.87540       -0.17280
C          2.32390       -1.55940       -2.56730
C          1.11260       -1.15550       -3.43830
C          0.00260       -0.79040       -2.42680
H          0.64600        2.21770       -0.36570
H         -0.90840        1.77340       -1.07950
H         -0.78890        2.05280        0.66160
H          0.67520        0.05250        0.92730
H         -0.86730       -0.39460        0.22270
H          3.46140       -1.88540        0.05870
H          3.96990       -0.30700       -0.52010
H          2.75420       -0.42180        0.76030
H          3.27900       -1.22800       -2.99390
H          2.40640       -2.65150       -2.45720
H          1.36980       -0.27110       -4.03010
H          0.81070       -1.93640       -4.14120
H         -0.69570       -1.62600       -2.26500
H         -0.61160        0.05110       -2.76830
