20
gdb 13215	4.11329	1.17611	0.99641	2.5498	70.85	-0.2439	0.0628	0.3066	1214.8596	0.17607	-386.117752	-386.108628	-386.107684	-386.152176	32.506
C         -0.03980        1.58610       -0.02770
C         -0.03560        0.05590       -0.05410
C          0.76350       -0.52520       -1.22640
O          2.12280       -0.08930       -1.20940
C          0.69290       -2.04830       -1.28750
C         -0.62600       -2.66870       -1.80370
O          0.01990       -3.17760       -2.98540
C          1.30870       -2.69440       -2.54620
H          0.98240        1.97310       -0.01320
H         -0.53470        1.99260       -0.91640
H         -0.56710        1.96660        0.85210
H          0.38860       -0.33560        0.88270
H         -1.06420       -0.32390       -0.10200
H          0.36370       -0.12080       -2.16660
H          2.51540       -0.39030       -0.38170
H          1.04840       -2.47260       -0.34210
H         -1.04750       -3.47160       -1.18560
H         -1.42490       -1.95440       -2.04530
H          1.75700       -1.99230       -3.25870
H          2.01200       -3.51680       -2.36530
