14
gdb 3503	6.54334	2.22575	2.08332	3.4696	58.59	-0.2402	-0.0358	0.2044	650.4818	0.114175	-324.491475	-324.485684	-324.484739	-324.521158	21.662
O         -0.22520        0.01910        0.12960
C         -0.04270        1.17780       -0.14610
C          1.24330        1.94230        0.00940
C          1.61030        2.63760        1.36160
C          1.93260        1.21100        1.85440
N          2.52470        1.20090        0.42380
C          3.04140        2.60780        0.79380
H         -0.86680        1.80390       -0.56320
H          1.38240        2.56680       -0.88260
H          1.07850        3.45020        1.86800
H          2.69700        1.11400        2.62910
H          1.12410        0.49680        1.99400
H          3.27270        3.23390       -0.07230
H          3.87050        2.58350        1.50510
