15
gdb 3329	6.29452	1.95604	1.79304	2.5552	56.26	-0.2443	0.0676	0.3119	728.096	0.125421	-345.599154	-345.592741	-345.591796	-345.629473	24.26
O          0.03560        1.35490       -0.27170
C          0.09010        0.01330        0.17740
C         -1.29080       -0.61480        0.12970
O         -1.86750       -0.52970       -1.21440
C         -2.17610       -1.92800       -1.17650
C         -0.93490       -2.75420       -1.11420
C         -1.48950       -2.13000        0.15430
H         -0.39780        1.32970       -1.13350
H          0.79960       -0.58270       -0.41570
H          0.45370        0.03380        1.21100
H         -1.96100       -0.09930        0.82810
H         -3.13710       -2.24260       -1.56570
H         -1.08660       -3.82760       -1.17600
H         -0.02260       -2.39390       -1.57890
H         -1.78440       -2.71170        1.01640
