17
gdb 4099	3.30102	1.8717	1.22122	0.9503	76.18	-0.2132	-0.019	0.1943	976.3459	0.142093	-363.848521	-363.840458	-363.839514	-363.881886	29.757
C         -0.04040        1.55700       -0.04130
C         -0.01190        0.05760        0.00210
C         -0.02790       -0.75280       -1.07030
C          0.00840       -2.21830       -0.73720
C          0.05240       -2.24050        0.81070
C          0.03810       -0.77320        1.22180
N          0.06900       -0.47990        2.46630
O          0.05140        0.90780        2.70900
H          0.84090        1.98460        0.44460
H         -0.07670        1.90690       -1.07710
H         -0.90710        1.95290        0.49510
H         -0.06380       -0.39410       -2.09420
H         -0.86910       -2.74280       -1.13600
H          0.88080       -2.71060       -1.18520
H         -0.80430       -2.76720        1.23970
H          0.94950       -2.73660        1.19050
H          0.07890        0.93830        3.67050
