18
gdb 19766	3.02637	2.75751	2.34383	1.5043	69.51	-0.2291	0.0838	0.313	716.089	0.158143	-347.812469	-347.806632	-347.805688	-347.842109	24.54
C          0.03150        1.53240       -0.09730
C          1.51330        1.86340        0.01670
C          2.17290        0.72860        0.78770
C          1.08380       -0.27780        1.13260
C          0.05330       -0.00510        0.01840
O          0.49630       -0.58170       -1.20910
C          1.78020       -0.12930       -1.64190
C          2.40870        0.87860       -0.69610
H         -0.53430        1.98130        0.72770
H         -0.42750        1.84690       -1.03950
H          1.83640        2.89100        0.13630
H          2.98600        0.91320        1.48010
H          1.41390       -1.32090        1.11290
H          0.65830       -0.07030        2.12170
H         -0.92690       -0.44710        0.20650
H          2.43720       -1.00530       -1.74790
H          1.67110        0.31260       -2.64330
H          3.38590        1.23380       -1.00930
