19
gdb 1107	3.14334	2.26158	1.89442	1.6833	63.11	-0.2613	0.0648	0.3261	803.23	0.168225	-348.061993	-348.052811	-348.051867	-348.094469	34.301
C          0.06880        1.51340        0.19580
C          0.00080        0.00060        0.00150
O         -1.33720       -0.48240        0.09500
C          0.67960       -0.50440       -1.30120
C          0.70160       -2.03730       -1.30090
C         -0.01660        0.02520       -2.56300
O          2.01620        0.00680       -1.22500
H          1.10070        1.86330        0.13430
H         -0.51310        2.04200       -0.56920
H         -0.34280        1.77900        1.17360
H          0.53580       -0.47940        0.82940
H         -1.90180        0.11990       -0.40020
H         -0.31170       -2.43850       -1.22790
H          1.15950       -2.41970       -2.22110
H          1.28330       -2.40450       -0.45000
H          0.03370        1.11580       -2.61430
H          0.46960       -0.37450       -3.46000
H         -1.06560       -0.28610       -2.59720
H          2.52140       -0.38150       -1.94650
