13
gdb 1509	5.32554	1.53289	1.20827	1.7598	52.47	-0.2548	-0.0984	0.1563	927.7355	0.098097	-381.58674	-381.578791	-381.577847	-381.619738	25.694
C         -0.16680        1.32690        0.30380
O          0.13810       -0.00990       -0.03010
C          0.52830       -0.76510        1.07230
C          0.83960       -2.18400        0.64430
O          0.76290       -2.60620       -0.48160
C          1.28610       -3.13330        1.76380
O          1.39070       -2.79900        2.91500
H          0.70210        1.84710        0.73550
H         -0.45910        1.82920       -0.62050
H         -0.99810        1.38740        1.02310
H          1.42440       -0.35560        1.57390
H         -0.25000       -0.80830        1.85630
H          1.50150       -4.15900        1.39730
