16
gdb 15872	2.56391	2.13426	1.36988	0.9677	65.89	-0.2551	0.0291	0.2842	906.1726	0.128883	-383.689961	-383.681831	-383.680887	-383.722211	30.889
O          0.55110        0.79680       -0.87220
C          0.11190       -0.21760       -0.02190
C          0.05100        0.01570        1.51090
C         -1.24800       -0.83200        1.55070
O         -2.28900       -0.48630        2.41220
C         -1.42040       -0.59610       -0.00050
C         -2.26150        0.54780       -0.28090
C         -2.91800        1.54270       -0.46020
H         -0.08240        1.52330       -0.81330
H          0.70250       -1.10380       -0.26770
H          0.89910       -0.30090        2.12060
H         -0.17360        1.06590        1.72700
H         -1.03080       -1.88680        1.73670
H         -2.62850        0.37300        2.13130
H         -1.72220       -1.45940       -0.59870
H         -3.52550        2.39260       -0.65410
