17
gdb 7969	3.52051	1.69155	1.21154	5.8174	73.8	-0.2149	-0.0083	0.2066	990.7447	0.142953	-363.919276	-363.911268	-363.910323	-363.95161	30.179
C         -0.11720        1.54620        0.01710
C          0.06180        0.02770       -0.02240
C          0.88560       -0.51590       -1.20720
C          1.95280       -1.37510       -0.56480
N          2.80160       -2.08390       -1.35340
C          1.89670       -1.34260        0.79080
C          0.80710       -0.48780        1.23450
O          0.49510       -0.19180        2.37120
H          0.85100        2.05640       -0.04410
H         -0.74110        1.90220       -0.80900
H         -0.58660        1.83280        0.96170
H         -0.92920       -0.44190       -0.01160
H          0.29020       -1.10320       -1.91620
H          1.35290        0.29260       -1.78560
H          2.87880       -1.84640       -2.32810
H          3.61100       -2.52010       -0.94340
H          2.56270       -1.85540        1.47260
