12
gdb 5659	5.49151	2.32252	1.63221	0.0004	61.	-0.2019	0.009	0.2108	704.448	0.0891	-373.747271	-373.741883	-373.740939	-373.776501	21.25
N         -0.03640        1.34580        0.01000
C          1.28450        1.74830       -0.00060
N          2.15360        0.74870       -0.01460
C          1.33980       -0.34340       -0.01260
C         -0.00030       -0.03120        0.00220
N         -0.81410       -1.12330        0.00410
C          0.05490       -2.12290       -0.00990
N          1.37580       -1.72040       -0.02060
H         -0.84250        1.94680        0.02150
H          1.55000        2.79450        0.00260
H         -0.21060       -3.16910       -0.01300
H          2.18200       -2.32140       -0.03180
