18
gdb 3072	9.21543	1.09714	1.04303	2.4705	65.76	-0.2439	0.0789	0.3228	1156.9204	0.159407	-326.939536	-326.931354	-326.93041	-326.972738	28.378
C         -0.19460        1.43370       -0.21640
C          0.07480       -0.04850       -0.01970
O          0.67080       -0.55780       -1.19530
C          0.97280       -1.93370       -1.11710
C          1.65900       -2.35740       -2.38660
C          1.45600       -3.73450       -2.90090
N          0.87990       -2.58240       -3.61190
H          0.73810        1.96930       -0.41440
H         -0.86610        1.59180       -1.06500
H         -0.65790        1.85960        0.67850
H          0.74090       -0.21050        0.84530
H         -0.86420       -0.58750        0.19570
H          1.62450       -2.13560       -0.24860
H          0.05050       -2.52630       -0.97260
H          2.61340       -1.86680       -2.56440
H          2.26000       -4.24310       -3.42480
H          0.79420       -4.39420       -2.34420
H         -0.11300       -2.50230       -3.40350
