16
gdb 16058	3.47419	1.69977	1.43606	4.1137	66.87	-0.2447	-0.0221	0.2227	900.6514	0.129892	-383.718147	-383.710591	-383.709647	-383.749901	28.137
O         -0.25680        1.43810       -0.04870
C         -0.14930        0.04830        0.02160
C         -0.46690       -0.73380        1.24570
C         -1.59380       -0.08360        2.05740
C         -2.52270       -0.09170        0.80480
C         -1.41810       -0.75700       -0.01910
C         -1.61030       -1.86580       -0.96020
O         -2.68610       -2.32370       -1.26760
H          0.45420        1.82000        0.47730
H          0.65370       -0.37740       -0.58370
H          0.17950       -1.53420        1.58810
H         -1.95920       -0.73110        2.85570
H         -1.35460        0.89700        2.47740
H         -3.38420       -0.75070        0.91520
H         -2.85180        0.88160        0.43760
H         -0.66460       -2.28520       -1.37810
