15
gdb 1324	5.30937	1.86225	1.64939	1.8213	64.03	-0.2568	0.0225	0.2794	795.2723	0.121773	-308.473428	-308.465612	-308.464668	-308.504795	28.649
C         -0.11980        1.54350       -0.02610
C         -0.05530        0.03580        0.05250
C         -1.20670       -0.71130       -0.58520
O          1.23640       -0.53490       -0.19170
C          0.70500       -0.62960        1.14220
C          1.38180        0.09150        2.18650
C          1.93610        0.66630        3.08540
H          0.73860        1.99820        0.47050
H         -0.12850        1.86290       -1.07370
H         -1.03530        1.91500        0.44600
H         -1.27880       -0.45660       -1.64810
H         -1.06540       -1.79160       -0.50270
H         -2.15600       -0.44230       -0.11050
H          0.39520       -1.63760        1.42020
H          2.43080        1.17710        3.87430
