15
gdb 11233	4.68029	1.42392	1.26109	1.9702	62.86	-0.2445	-0.031	0.2136	971.1293	0.118279	-399.832089	-399.82435	-399.823406	-399.864945	26.835
C         -0.07280        1.57040       -0.29620
C         -0.06920        0.08860       -0.14180
N         -1.08860       -0.67500       -0.19350
C         -0.58850       -2.03800        0.05070
C          0.94340       -1.89110        0.17010
O          1.15270       -0.46380        0.07010
C         -1.25850       -2.59280        1.30500
O         -0.67160       -3.12710        2.20960
H          0.55870        1.86360       -1.14050
H         -1.09090        1.92140       -0.45840
H          0.34260        2.04190        0.59980
H         -0.88990       -2.69350       -0.77900
H          1.31460       -2.24350        1.13520
H          1.49490       -2.37720       -0.63800
H         -2.35960       -2.45330        1.31830
