15
gdb 11490	5.54799	1.14171	1.00403	3.5785	69.83	-0.2538	-0.0256	0.2283	1140.7403	0.117495	-362.636548	-362.628283	-362.627338	-362.670073	29.545
O          0.33010        0.62350        1.37950
C          0.15360        1.38700        0.45040
N          1.12450        1.74070       -0.44650
C          2.42800        1.14800       -0.42780
C          3.59630        2.01070       -0.82210
C          3.41650        1.59300        0.61570
C         -1.13160        2.03020        0.19090
C         -2.20480        2.53880        0.00310
H          0.84670        2.28500       -1.24850
H          2.45560        0.09930       -0.71290
H          4.38600        1.55500       -1.40810
H          3.39090        3.04610       -1.07230
H          3.08130        2.34340        1.32100
H          4.07910        0.84260        1.03010
H         -3.15910        2.98080       -0.15010
