15
gdb 16543	3.27069	2.20533	1.53962	4.4593	62.38	-0.2389	0.0107	0.2496	826.3536	0.119312	-399.784817	-399.777672	-399.776727	-399.816397	25.682
C         -0.04220        1.41200       -0.08950
N         -0.03320       -0.01610        0.11220
C         -1.10120       -1.00860        0.06200
C         -1.46380       -1.51610       -1.35230
O         -0.36370       -2.45590       -1.34380
C         -0.00080       -2.10110        0.00870
C          1.01220       -0.92140        0.04010
O          2.20150       -0.76870       -0.02780
H          0.99750        1.74800       -0.10010
H         -0.50960        1.68620       -1.04380
H         -0.57330        1.92550        0.71960
H         -1.87820       -0.91740        0.82080
H         -2.42520       -2.04070       -1.40390
H         -1.39350       -0.78870       -2.16840
H          0.11780       -2.95500        0.67580
