19
gdb 16372	2.32165	2.2944	1.47481	1.7613	71.47	-0.2412	0.0701	0.3113	943.4646	0.164559	-365.025227	-365.016891	-365.015947	-365.057821	31.254
C         -0.34260        1.27930       -1.26790
C          0.23860       -0.05190       -0.83460
O          1.62230       -0.21380       -1.23120
C          2.04030       -0.58350        0.11210
C          3.21860        0.23150        0.60250
C          0.63660       -0.27020        0.62720
C          0.18280        0.45220        1.83260
N         -0.05990       -0.99920        1.67190
H          0.24020        2.10980       -0.86010
H         -0.33630        1.35490       -2.35980
H         -1.38080        1.37750       -0.93050
H         -0.37270       -0.87990       -1.22830
H          2.26440       -1.65840        0.16400
H          2.98650        1.30040        0.59140
H          3.48600       -0.06160        1.62360
H          4.08930        0.06020       -0.03810
H          0.88800        0.71100        2.61790
H         -0.65430        1.13910        1.73370
H         -1.02730       -1.16920        1.40420
