19
gdb 8320	4.51115	1.12358	0.99754	1.1355	68.56	-0.2247	0.0618	0.2865	1193.0015	0.164873	-402.156782	-402.148032	-402.147088	-402.190746	31.814
O          0.29750        1.32620       -0.00580
C          0.05430       -0.07380        0.00910
C         -1.42970       -0.42680        0.07880
N         -2.16070       -0.01840       -1.10690
C         -2.56610        1.39970       -1.26930
C         -3.88340        0.90730       -1.92000
O         -3.88380        0.87800       -3.32740
C         -3.57180       -0.44590       -1.23010
H          0.09380        1.64970       -0.88780
H          0.50410       -0.56540       -0.86560
H          0.55510       -0.45870        0.90420
H         -1.51850       -1.51750        0.16850
H         -1.86250        0.01580        0.99710
H         -2.72700        1.91960       -0.31220
H         -1.91830        2.01370       -1.90660
H         -4.80160        1.41470       -1.62340
H         -3.08530        0.41460       -3.60570
H         -3.73770       -1.35520       -1.81870
H         -4.08380       -0.54450       -0.25880
