18
gdb 19508	3.61482	1.50955	1.49104	3.5826	72.35	-0.2397	-0.0168	0.2229	944.4666	0.155533	-347.816149	-347.80887	-347.807926	-347.84792	27.523
O         -0.18480        0.01700       -0.27160
C         -0.10960        1.15510        0.13130
C          1.14360        1.94070        0.09710
C          1.24000        3.44240       -0.19150
C          0.01080        4.33750       -0.08010
C         -0.55040        4.12890        1.35120
C          0.59890        3.49740        2.18030
C          1.59460        2.93590        1.17140
H         -1.00510        1.65760        0.55050
H          1.95300        1.35620       -0.33060
H          2.00360        3.72100       -0.90950
H          0.33840        5.37440       -0.21490
H         -0.73990        4.14330       -0.85280
H         -0.89030        5.07070        1.78970
H         -1.42300        3.47100        1.33370
H          1.11420        4.26620        2.76690
H          0.23480        2.75100        2.89340
H          2.62690        2.83050        1.48650
