19
gdb 17617	3.98201	1.39715	1.14035	3.3667	74.76	-0.2326	0.0303	0.2629	1102.3409	0.164818	-365.079674	-365.070447	-365.069502	-365.114566	32.129
C          0.00430        1.40770        0.03000
N         -0.04420       -0.04580        0.05000
C          0.27940       -0.67250        1.31890
C         -0.32130       -0.71220       -1.11930
O         -0.63160       -0.11500       -2.14290
C         -0.23620       -2.20950       -1.11870
C         -1.32580       -2.94760       -1.88250
C          0.04750       -2.85950       -2.46050
H          1.00050        1.76670        0.31930
H         -0.22470        1.74220       -0.97990
H         -0.72780        1.83030        0.72950
H         -0.08560       -0.03440        2.13020
H         -0.21090       -1.63980        1.42440
H          1.36140       -0.80630        1.46120
H          0.17340       -2.71000       -0.25280
H         -1.66810       -3.89160       -1.47380
H         -2.09120       -2.32440       -2.32910
H          0.19280       -2.17460       -3.28670
H          0.67480       -3.74350       -2.45760
