16
gdb 8516	4.56738	1.83558	1.63205	0.5874	63.8	-0.2171	0.0738	0.2909	822.166	0.129188	-383.671517	-383.664488	-383.663543	-383.702111	28.074
C         -0.04190        1.53820        0.08520
C         -0.10300        0.05020       -0.05480
C          0.41160       -0.72630       -1.30280
C         -0.48010       -1.85640       -0.78670
O         -0.90900       -2.98760       -1.44420
C         -0.39890       -1.73870        0.75080
O          0.50580       -0.68400        1.06250
C         -1.36890       -0.89880       -0.01420
H          1.00190        1.86920        0.11120
H         -0.53650        2.02520       -0.76040
H         -0.52740        1.86040        1.01060
H          0.01700       -0.30700       -2.23210
H          1.49480       -0.87550       -1.36700
H         -0.22310       -3.66110       -1.37200
H         -0.53530       -2.56060        1.44180
H         -2.43750       -0.74140        0.03120
