16
gdb 11664	3.13597	1.96946	1.55131	2.8192	64.91	-0.2456	0.006	0.2516	858.3855	0.130787	-383.701968	-383.694665	-383.693721	-383.733832	27.357
O          0.01270        1.39190        0.04070
C          0.00440       -0.01890       -0.11240
C         -1.39940       -0.55640       -0.06100
C         -2.59820       -0.31170       -1.05000
C         -3.24640       -1.17760        0.08650
C         -1.92960       -2.03130        0.03670
C         -2.44850       -0.26440        1.02290
O         -2.55170        0.37050        2.03030
H         -0.39050        1.58890        0.89440
H          0.47460       -0.22720       -1.07940
H          0.61330       -0.51650        0.65970
H         -2.94850        0.71360       -1.17470
H         -2.49880       -0.83200       -2.00590
H         -4.27120       -1.53430        0.15210
H         -1.81110       -2.61490       -0.87960
H         -1.66440       -2.60860        0.92470
