14
gdb 962	3.51438	3.46311	1.78289	1.8213	59.48	-0.2264	0.0118	0.2382	697.1342	0.11377	-324.624987	-324.618145	-324.617201	-324.655847	24.096
C          0.13840        1.51370        0.04560
C         -0.04690        0.04310       -0.03480
C         -1.11100       -0.80190        0.00120
C         -2.56620       -0.50650        0.14540
N         -0.64840       -2.11530       -0.12450
C          0.63150       -1.99550       -0.22640
O          1.08670       -0.72450       -0.18220
H          0.76620        1.79420        0.89880
H          0.61640        1.90900       -0.85790
H         -0.82930        2.00680        0.16030
H         -3.12800       -0.88190       -0.71650
H         -2.97750       -0.99500        1.03530
H         -2.74990        0.56750        0.23070
H          1.37150       -2.77240       -0.34070
