13
gdb 5430	3.51043	1.87053	1.2203	4.6838	64.19	-0.2118	-0.0223	0.1895	901.3306	0.096248	-398.648957	-398.641958	-398.641014	-398.680093	26.005
O          0.09850        1.30970        0.15550
C          0.05890       -0.02600       -0.00520
C          0.03330       -0.85090       -1.12850
C          0.04470       -0.40930       -2.50000
O          0.02250       -1.12120       -3.48330
C         -0.00580       -2.20090       -0.62730
C         -0.00280       -2.14370        0.73110
N          0.03740       -0.79910        1.10400
H          0.10990        1.72940       -0.71200
H          0.07740        0.70620       -2.62450
H         -0.03250       -3.08570       -1.24230
H         -0.02480       -2.91460        1.48300
H          0.04910       -0.43780        2.04280
