14
gdb 20403	4.8889	2.06444	1.49051	4.0836	63.09	-0.2207	0.004	0.2248	792.2293	0.110881	-378.710798	-378.70493	-378.703986	-378.740677	22.982
C          0.00370        1.44030        0.11360
C          1.46840        1.94510       -0.11250
C          2.23570        0.65960       -0.01900
C          3.42900        0.04120        0.09830
O          3.26230       -1.30050        0.08860
N          1.88010       -1.60770       -0.04420
C          1.32430       -0.42750       -0.10830
N          0.02500        0.01040       -0.27650
H         -0.26990        1.55810        1.17160
H         -0.72320        1.99100       -0.48860
H          1.56890        2.39940       -1.10500
H          1.74660        2.70210        0.62440
H          4.45010        0.37500        0.20250
H         -0.72040       -0.57290        0.07480
