17
gdb 14280	3.47766	1.80211	1.73775	2.1309	67.14	-0.2251	-0.0232	0.2019	844.4888	0.142603	-363.86488	-363.857665	-363.856721	-363.896303	27.718
C         -0.41430        1.38930        0.22480
C         -0.02970       -0.06010        0.02280
C          0.61620       -0.59460       -1.20800
C          1.23630        0.36660       -2.19690
C          2.30830        1.12080       -1.39220
O          2.95470        2.06000       -1.77190
C          2.40480        0.44970       -0.01190
N          1.35690       -0.56540        0.09220
H          0.18870        2.09550       -0.35040
H         -1.45850        1.53490       -0.07100
H         -0.33100        1.66570        1.28170
H         -0.70970       -0.74430        0.52850
H          0.34360       -1.58430       -1.56310
H          1.72740       -0.16490       -3.01990
H          0.54100        1.08000       -2.64880
H          3.38520       -0.03460        0.07640
H          2.34760        1.20270        0.78060
