17
gdb 17176	4.04347	1.84113	1.59022	0.9705	67.82	-0.2351	0.0615	0.2966	862.998	0.141826	-363.751221	-363.744168	-363.743224	-363.782563	27.208
C         -0.04670        1.54560       -0.04330
C         -0.07830        0.01250       -0.03920
C         -1.46720       -0.53600        0.02010
O         -2.42210       -0.22560       -1.04870
C         -3.18990       -1.06610       -0.14440
C         -1.98940       -1.99590        0.22240
N         -2.09870       -1.80700        1.70630
C         -2.54690       -0.48650        1.15520
H          0.97970        1.91310       -0.12930
H         -0.62550        1.94170       -0.88210
H         -0.47320        1.95050        0.88010
H          0.41000       -0.37870       -0.94010
H          0.46970       -0.38780        0.82200
H         -4.22730       -1.29580       -0.39180
H         -1.65140       -2.91770       -0.25280
H         -2.90110       -2.32760        2.06900
H         -2.86380        0.35570        1.77130
