14
gdb 16716	6.24423	1.41577	1.26156	1.7049	72.32	-0.2333	-0.0354	0.1979	930.7946	0.106933	-345.361167	-345.354504	-345.35356	-345.391849	25.897
C          0.07230       -1.17310        0.07510
C         -0.01540        0.02840        0.03590
C         -0.05910        1.43990       -0.02280
C         -1.16040        2.21470       -0.04520
C         -0.78510        3.65430       -0.00900
O         -0.05350        4.02110        1.18690
C          0.68840        3.70990        0.00860
C          1.21620        2.28340       -0.03850
H          0.13250       -2.23250        0.11340
H         -2.17910        1.85060       -0.04980
H         -1.42270        4.43260       -0.41560
H          1.26030        4.52950       -0.41790
H          1.86090        2.05520        0.81690
H          1.80130        2.09800       -0.94690
