12
gdb 4652	7.31154	1.28066	1.09106	5.5398	64.41	-0.2146	-0.0219	0.1927	986.7287	0.08538	-377.563975	-377.557088	-377.556144	-377.595016	25.311
N          0.08810        1.36700        0.16140
C         -0.06710       -0.00030        0.05080
C         -1.14480       -0.83110        0.02000
C         -0.59530       -2.16680       -0.00220
C          0.76040       -2.03420        0.01140
O          1.09070       -0.71390        0.04630
C         -1.31550       -3.38640       -0.03910
N         -1.91490       -4.37680       -0.07080
H          0.92870        1.71290       -0.28260
H         -0.72600        1.88890       -0.12970
H         -2.18680       -0.56020        0.01230
H          1.57610       -2.73540       -0.00350
