18
gdb 16575	2.99331	2.55126	2.13589	2.1163	66.18	-0.2392	0.0793	0.3186	747.2584	0.1577	-384.947629	-384.941489	-384.940545	-384.977567	25.116
C         -0.01620        1.55630       -0.03690
O          1.35490        1.98430       -0.03830
C          2.18010        0.82290        0.05640
C          1.36840       -0.26000       -0.66130
C          0.02390        0.01710        0.03440
C          0.14740       -0.44930        1.49480
O          1.12340        0.30160        2.20100
C          2.36840        0.43080        1.53080
H         -0.53600        2.00010        0.81940
H         -0.49730        1.90600       -0.95960
H          3.14620        1.05260       -0.40290
H          1.32590       -0.06950       -1.73770
H          1.74170       -1.27410       -0.49490
H         -0.83730       -0.45400       -0.44620
H         -0.78900       -0.29730        2.04130
H          0.38390       -1.52690        1.52160
H          2.95390       -0.50340        1.59050
H          2.91250        1.21290        2.06760
