18
gdb 8732	2.39919	1.84081	1.10127	0.9389	79.06	-0.2555	0.0461	0.3015	1091.0545	0.150025	-310.605935	-310.596367	-310.595423	-310.639812	35.266
C          0.05080        1.55100       -0.00450
C          0.01530        0.00970        0.03410
C          0.72300       -0.47540        1.21780
C          1.29770       -0.83260        2.21120
C         -1.44130       -0.56150       -0.01070
C         -2.24690       -0.04100       -1.21850
C         -1.42190       -2.02330       -0.01750
C         -1.41460       -3.22410       -0.06910
H          1.07970        1.90330        0.10080
H         -0.34560        1.93470       -0.94740
H         -0.53420        1.97300        0.81900
H          0.53360       -0.37120       -0.85630
H          1.80870       -1.16980        3.07870
H         -1.94160       -0.22870        0.90880
H         -1.73280       -0.27330       -2.15660
H         -3.22830       -0.52040       -1.24690
H         -2.39740        1.03950       -1.16070
H         -1.40320       -4.28550       -0.09120
