13
gdb 1401	7.24749	1.43396	1.24801	1.5976	61.8	-0.2606	0.0238	0.2843	904.3445	0.09829	-307.239887	-307.231905	-307.230961	-307.271909	28.479
O         -0.08140        1.44940        0.02360
C          0.01060        0.03560        0.02090
C          0.67360       -0.50740       -1.27580
C         -0.04370       -0.11570       -2.48010
C         -0.64910        0.19900       -3.46890
C          0.72070       -0.47170        1.19940
C          1.34670       -0.86450        2.14750
H          0.80560        1.80270        0.15650
H         -1.02740       -0.31440        0.04180
H          1.70920       -0.14560       -1.31130
H          0.73150       -1.60010       -1.20500
H         -1.17980        0.48110       -4.34420
H          1.87770       -1.21500        2.99830
