20
gdb 14174	3.74315	1.64827	1.62872	1.4121	74.61	-0.2295	0.0858	0.3153	930.5108	0.177404	-348.999571	-348.991534	-348.99059	-349.031482	30.906
C         -0.04030        1.55880        0.01520
C          0.02050        0.04640       -0.01590
C         -1.19580       -0.64470        0.57390
C          0.68640       -0.69670       -1.17440
C          1.63070        0.05290       -2.11400
C          2.91730        0.18420       -1.26990
O          2.50800        0.12320        0.10100
C          1.34430       -0.65960        0.18130
H          0.92320        2.01160       -0.22480
H         -0.79120        1.94180       -0.68580
H         -0.31930        1.90360        1.01740
H         -2.10100       -0.40420        0.00380
H         -1.08270       -1.73380        0.56940
H         -1.36090       -0.33020        1.61080
H          0.20180       -1.59550       -1.53930
H          1.80840       -0.51360       -3.03210
H          1.24040        1.03320       -2.40470
H          3.61150       -0.64120       -1.48960
H          3.44920        1.12890       -1.41590
H          1.42570       -1.52250        0.83770
