19
gdb 3287	4.58166	2.38671	1.97469	0.1661	70.4	-0.2607	0.0829	0.3436	746.3416	0.173004	-273.761356	-273.754552	-273.753608	-273.792022	26.557
C          0.08190        1.59970       -0.04860
C          0.05700        0.08040        0.03110
C          0.95950       -0.75630       -0.92860
C          1.36420       -1.68450        0.25560
C          2.74490       -1.37480        0.87520
C          2.10420       -0.21740        1.70030
C          0.68240       -0.66630        1.24050
H          1.09980        1.99580        0.03240
H         -0.32730        1.94690       -1.00420
H         -0.51570        2.05110        0.75170
H         -0.97930       -0.26230       -0.07300
H          0.44080       -1.23770       -1.76120
H          1.80600       -0.19450       -1.33890
H          1.05910       -2.72850        0.16930
H          3.10960       -2.18400        1.51440
H          3.54300       -1.10700        0.17540
H          2.27030       -0.28200        2.77800
H          2.39280        0.78800        1.38200
H          0.00640       -0.96690        2.04340
