17
gdb 8346	5.52892	1.2915	1.26267	3.4805	71.32	-0.2593	0.0209	0.2802	1010.4874	0.14296	-363.81051	-363.803308	-363.802363	-363.843	26.974
N         -0.13100        1.25360        0.00990
C         -0.04870       -0.00540        0.00280
O         -1.17490       -0.75060        0.00780
C         -1.01850       -2.13820        0.00010
C         -0.34640       -3.04440        1.07560
C         -0.94060       -3.98980       -0.00930
C         -2.22140       -3.09970        0.00470
C         -0.36300       -3.03410       -1.09410
H          0.80230        1.66020        0.00450
H          0.87290       -0.59980       -0.00750
H          0.74360       -3.00940        1.14850
H         -0.82110       -3.06450        2.05940
H         -0.89940       -5.07520       -0.01480
H         -2.82460       -3.12010        0.91510
H         -2.83840       -3.11150       -0.89670
H         -0.85250       -3.04490       -2.07070
H          0.72590       -2.99830       -1.18330
