18
gdb 13642	6.80971	0.80262	0.76279	1.6163	77.66	-0.2433	0.0589	0.3022	1532.8126	0.150935	-347.76536	-347.755727	-347.754782	-347.80182	32.648
C         -0.07150        1.45370       -0.30810
C         -0.01830        0.03060       -0.00520
C          0.03240       -1.14690        0.23880
C          0.06000       -2.57610        0.53750
C         -1.30560       -3.22630        0.37710
O         -1.69010       -3.63700       -0.93510
C         -1.51340       -4.64990        0.06400
C         -0.41840       -5.66370       -0.15280
H          0.66340        1.72550       -1.07390
H         -1.05990        1.74240       -0.68260
H          0.13600        2.06070        0.58030
H          0.78260       -3.07980       -0.11220
H          0.40080       -2.73250        1.57080
H         -2.09610       -2.71360        0.92820
H         -2.45560       -5.08330        0.40810
H          0.51640       -5.19940       -0.47230
H         -0.23250       -6.22590        0.76900
H         -0.71890       -6.37990       -0.92460
