12
gdb 2823	4.75103	2.0913	1.6523	3.0232	58.05	-0.2592	-0.0082	0.251	729.5581	0.088581	-323.32829	-323.321469	-323.320525	-323.359242	23.984
O          0.10440        0.27990       -0.52460
C          0.13930        1.42070       -0.14060
N          1.21030        1.98580        0.54490
C          2.58470        1.79090        0.16820
C          1.95250        3.16550        0.09840
C          1.66570        3.76400       -1.17670
C          1.41390        4.28470       -2.23050
H         -0.70800        2.12480       -0.22500
H          3.27990        1.57680        0.97480
H          2.77290        1.27780       -0.77040
H          2.18590        3.86760        0.89560
H          1.19670        4.73650       -3.16710
