10
gdb 23693	3.81529	2.0519	1.3343	2.2027	53.64	-0.2582	-0.0889	0.1693	790.8106	0.060201	-458.600639	-458.594766	-458.593821	-458.630915	21.528
F          0.08600        0.06640        0.00240
C         -0.06260        1.36670        0.01120
C         -1.25860        1.99590        0.03060
N         -1.29450        3.36540        0.03810
C         -0.18610        4.03030        0.02670
C          1.14400        3.42540        0.00620
O          2.21450        3.95030       -0.00650
O          1.09680        1.99610       -0.00100
H         -2.18810        1.44490        0.04030
H         -0.21100        5.11560        0.03220
