13
gdb 16482	3.03621	2.74662	1.76163	3.9784	57.47	-0.2209	0.0006	0.2215	723.9204	0.095474	-398.525247	-398.518878	-398.517933	-398.555511	24.681
O         -0.06750        1.35330        0.08560
C          0.07950       -0.00540        0.06530
C         -0.20160       -0.86590       -1.17290
N          0.56220       -2.12630       -1.00290
C          0.01420       -2.11270        0.40580
C         -1.08550       -1.05320        0.01610
C          0.78540       -0.91850        1.02540
O          1.44770       -0.76770        2.01020
H          0.61180        1.75040       -0.47120
H         -0.39350       -0.39040       -2.12760
H          0.05540       -2.84970       -1.51440
H         -0.11350       -3.05120        0.93610
H         -2.12350       -0.88630        0.26660
