16
gdb 14824	2.6516	2.15264	1.39828	4.6459	66.1	-0.2418	-0.0342	0.2076	896.5859	0.128869	-383.745248	-383.737371	-383.736427	-383.778286	27.725
O         -0.59270        0.74770        0.78630
C         -0.03400        1.13950       -0.20750
C          1.19540        2.00350       -0.23240
C          0.89810        3.45510       -0.75150
C          1.06350        3.98700        0.69850
C          1.64700        2.62100        1.13050
C          1.15800        2.02740        2.43400
O          0.55050        2.65880        3.26090
H         -0.42680        0.88770       -1.21940
H          1.96300        1.47280       -0.80660
H          1.66800        3.80970       -1.43940
H         -0.07830        3.60440       -1.21990
H          1.70810        4.85790        0.82520
H          0.11410        4.17970        1.20180
H          2.74320        2.62370        1.18110
H          1.45930        0.97380        2.61480
