18
gdb 5879	4.13315	1.05176	1.04785	3.5806	65.49	-0.2796	0.006	0.2856	1191.08	0.150008	-422.103913	-422.094261	-422.093317	-422.138704	33.998
C          0.75560        1.09540        0.07730
C         -0.19350       -0.09060       -0.12490
C         -0.03750       -1.12990        0.99120
O         -1.55000        0.35500       -0.20850
C          0.02150       -0.72720       -1.50690
O          1.35130       -1.23990       -1.62210
C          1.51550       -2.53680       -1.94680
O          2.59060       -3.04160       -2.06350
H          1.79940        0.77650        0.01620
H          0.57670        1.85700       -0.68720
H          0.59660        1.55140        1.06110
H         -0.23210       -0.67100        1.96680
H         -0.75030       -1.94860        0.85370
H          0.97540       -1.54110        1.01290
H         -1.75550        0.83140        0.60240
H         -0.71590       -1.52430       -1.65930
H         -0.11980        0.02910       -2.28440
H          0.55330       -3.06610       -2.09040
