19
gdb 10737	2.89479	1.62789	1.39491	3.9979	74.99	-0.2972	0.0435	0.3407	998.0993	0.16443	-327.935289	-327.926417	-327.925473	-327.968515	33.032
C          0.11570        1.47300        0.01420
C         -0.01500       -0.06800        0.04360
C          0.57770       -0.61270        1.36110
C         -1.44940       -0.41620        0.00900
N         -2.57330       -0.68540       -0.02080
C          0.62920       -0.64980       -1.22420
C          2.09870       -0.97300       -1.32450
C          1.07310       -2.08070       -1.35990
H          1.17500        1.74520        0.02390
H         -0.33920        1.88850       -0.88890
H         -0.37120        1.92610        0.88190
H          0.04310       -0.18610        2.21360
H          0.49630       -1.69980        1.42720
H          1.63000       -0.33030        1.44810
H          0.19180       -0.22150       -2.12200
H          2.61250       -0.70650       -2.24130
H          2.71500       -0.89220       -0.43650
H          1.00890       -2.73050       -0.49480
H          0.87710       -2.58240       -2.30060
