19
gdb 15875	2.60561	1.84436	1.25998	3.993	73.65	-0.2384	0.0244	0.2628	1027.1481	0.164786	-365.088076	-365.07936	-365.078416	-365.121578	31.426
C         -0.39940        1.16740        1.26340
C          0.11580       -0.07040        0.54690
C          0.55680        0.05880       -0.94180
C          1.95390       -0.50150       -0.53780
C          3.17660        0.34300       -0.86430
N          1.49950       -0.46130        0.86530
C          1.96590       -1.06590        1.98110
O          1.34300       -1.17770        3.01930
H          0.27090        2.01840        1.10530
H         -1.39370        1.43480        0.88960
H         -0.46970        0.97570        2.33690
H         -0.57250       -0.90790        0.71560
H         -0.00400       -0.54020       -1.65950
H          0.59680        1.09370       -1.29040
H          2.10740       -1.53130       -0.88620
H          3.03690        1.37500       -0.52830
H          4.07520       -0.05470       -0.38180
H          3.35200        0.34970       -1.94550
H          3.00300       -1.44120        1.85200
