16
gdb 19517	3.73331	1.92013	1.77953	1.4476	63.4	-0.2114	0.0093	0.2208	808.4981	0.132342	-379.894299	-379.887307	-379.886363	-379.925562	26.231
C         -0.50820        1.03660        0.14670
N          0.58980        0.10190       -0.07370
C          1.04190       -0.59070        1.08670
C          0.18750       -1.53170        1.91880
O         -0.98570       -2.03350        1.28710
C         -0.54600       -2.73780        0.21560
N          0.70750       -2.85220        0.02310
C          1.33760       -2.07800        1.07070
H         -0.17180        1.85220        0.79710
H         -0.79850        1.47950       -0.81040
H         -1.39850        0.58200        0.60790
H          0.38920       -0.54400       -0.82650
H          1.74480       -0.02810        1.70050
H          0.10550       -1.49620        2.99760
H         -1.32810       -3.16660       -0.39910
H          2.28260       -2.45270        1.44440
