15
gdb 12040	3.91824	1.74626	1.55806	4.2654	65.12	-0.2468	0.022	0.2688	842.3476	0.120264	-358.799296	-358.792173	-358.791229	-358.830349	27.427
N          0.06690        1.46130       -0.01590
C          0.02360        0.01210        0.00010
C          0.24290       -0.64190        1.43010
C         -1.13660       -1.28820        1.31230
N         -2.09250       -0.16890        1.11870
C         -1.35780       -0.71910       -0.03990
C          0.93790       -0.53370       -1.00200
N          1.63180       -0.98410       -1.80910
H         -0.09380        1.81230       -0.95600
H         -0.69890        1.79030        0.56830
H          1.06850       -1.35390        1.43620
H          0.36490        0.08680        2.23380
H         -1.46140       -2.23470        1.72310
H         -3.03370       -0.55840        1.09340
H         -1.86920       -1.11240       -0.90970
