14
gdb 715	5.97304	5.2497	4.16578	0.2808	55.83	-0.2442	0.1074	0.3515	420.7831	0.122208	-233.24225	-233.237852	-233.236908	-233.269547	18.147
C         -0.01360        1.49080        0.13680
C          1.50340        1.41940       -0.02170
C          1.97150        0.10490        0.62560
C          0.73220       -0.60320        1.16790
C          0.00000       -0.04730       -0.08520
C          1.41750        0.11580       -0.77910
H         -0.43710        1.86190        1.07820
H         -0.47350        2.01610       -0.70510
H          2.19950        2.23260       -0.18380
H          3.00320       -0.02410        0.92750
H          0.84640       -1.68990        1.11970
H          0.33900       -0.31740        2.15130
H         -0.86730       -0.55910       -0.49720
H          1.82860       -0.20370       -1.72530
