20
gdb 12506	3.17565	1.83393	1.28022	0.3402	82.02	-0.2252	0.0277	0.2529	1012.1788	0.178369	-311.885822	-311.877837	-311.876893	-311.91818	30.691
C          0.62910        1.43200        0.11530
C         -0.02160        0.09000       -0.08880
C         -0.08050       -0.49210       -1.28740
C         -0.70880       -1.83250       -1.59310
C         -0.35860       -2.99970       -0.69540
C          0.01560       -3.01170        0.58430
C          0.14970       -1.86000        1.54680
C         -0.59570       -0.57670        1.14430
H          1.44910        1.36740        0.84320
H          1.03410        1.83580       -0.81650
H         -0.08550        2.15990        0.52210
H          0.34330        0.03380       -2.14060
H         -1.80760       -1.72920       -1.62780
H         -0.43490       -2.11440       -2.61630
H         -0.43330       -3.96560       -1.19280
H          0.24430       -3.98400        1.01900
H         -0.22170       -2.19280        2.52570
H          1.21430       -1.63180        1.70530
H         -0.57410        0.12350        1.98640
H         -1.65170       -0.82750        0.97760
