16
gdb 12486	3.30401	2.04725	1.44421	3.3923	60.76	-0.263	0.0076	0.2706	859.9945	0.132158	-420.904973	-420.897774	-420.89683	-420.936923	26.266
O         -0.03000        0.04150        0.63980
C         -0.04590        1.09560        0.06810
C         -1.25380        2.01430        0.02320
C         -1.77640        2.27330       -1.40380
C         -0.67570        2.84810       -2.31860
O          0.28160        3.55230       -1.53010
C          1.35920        2.77790       -1.11540
O          1.06040        1.45790       -0.64970
H         -2.02350        1.54090        0.63430
H         -0.99150        2.97180        0.48300
H         -2.17610        1.35020       -1.83690
H         -2.61090        2.97770       -1.33150
H         -0.18240        2.05320       -2.89130
H         -1.08740        3.56910       -3.02950
H          2.06300        2.59230       -1.93840
H          1.85420        3.34300       -0.31810
