16
gdb 21152	3.36293	1.84925	1.21804	5.7055	68.46	-0.2016	0.0233	0.2249	975.5566	0.13134	-376.098666	-376.090398	-376.089454	-376.131854	29.07
C          0.12500        1.46160        0.09330
N         -0.19400        0.05310       -0.07910
C          0.52900       -0.70220       -0.98260
C          0.69430       -2.07280       -1.10750
C          0.16460       -3.17100       -0.24600
N          1.46050       -2.30010       -2.21250
N          1.78360       -1.18080       -2.78200
N          1.21760       -0.19140       -2.03140
H          1.18280        1.64890        0.33490
H         -0.12490        2.01830       -0.81720
H         -0.49210        1.86750        0.89710
H         -0.35430       -0.43910        0.78740
H         -0.93080       -3.22540       -0.26530
H          0.55450       -4.12530       -0.60670
H          0.46830       -3.06130        0.80320
H          1.34540        0.76870       -2.30340
