17
gdb 8276	5.91545	0.98256	0.90514	4.8073	68.96	-0.2694	0.033	0.3024	1239.1982	0.142159	-363.866922	-363.858764	-363.85782	-363.900043	29.731
O         -0.19160        1.47200       -0.03280
C         -0.01150        0.07800        0.00430
C          0.30570       -0.60400        1.36740
C         -0.73160       -1.69860        0.99540
C         -1.63850       -2.22740        2.11190
C         -2.65590       -3.15350        1.61530
N         -3.44980       -3.88390        1.20070
C         -1.32880       -0.72110       -0.05420
H          0.67370        1.89330       -0.04390
H          0.69000       -0.25680       -0.77280
H          1.33240       -0.91440        1.57660
H         -0.05710        0.02810        2.18460
H         -0.24330       -2.54300        0.50070
H         -1.04300       -2.74270        2.87520
H         -2.14240       -1.39270        2.61370
H         -2.13590       -0.12000        0.37650
H         -1.65400       -1.12200       -1.01530
