21
gdb 7180	2.55301	1.21819	0.92096	3.5594	76.54	-0.2482	0.0345	0.2827	1338.3961	0.187278	-366.304557	-366.294467	-366.293523	-366.341111	35.238
C          0.16050        1.39450        0.03030
C          0.01260       -0.12910       -0.00050
C         -1.45020       -0.58420       -0.00590
C         -1.64110       -2.10990       -0.02450
C         -3.11450       -2.50520        0.12840
N         -1.07770       -2.69990       -1.23820
C         -0.08480       -3.62850       -1.24120
O          0.47610       -4.06630       -0.25850
H          1.21360        1.69200        0.03010
H         -0.31600        1.85760       -0.84140
H         -0.30570        1.82200        0.92510
H          0.52070       -0.53060       -0.88500
H          0.52250       -0.56850        0.86590
H         -1.95900       -0.18950        0.88300
H         -1.97260       -0.14580       -0.86970
H         -1.06310       -2.55390        0.79140
H         -3.52620       -2.10850        1.06150
H         -3.71850       -2.10790       -0.69640
H         -3.22520       -3.59290        0.13810
H         -1.47650       -2.43520       -2.12640
H          0.16750       -3.95140       -2.27180
