15
gdb 2316	5.16484	1.78781	1.49112	4.0632	61.48	-0.2423	0.0294	0.2717	820.9436	0.124856	-304.67834	-304.670998	-304.670054	-304.710047	26.012
C         -0.26600        1.42740        0.19580
N          0.03850        0.00600        0.11630
C          1.38740       -0.39580       -0.25680
C          0.87520       -0.63050        1.12420
C          1.49290        0.12580        2.29680
C          0.54220        0.34590        3.38860
N         -0.21610        0.51530        4.24380
H          0.58900        2.06670        0.46790
H         -0.62680        1.75820       -0.78260
H         -1.06410        1.58660        0.92670
H          1.47200       -1.21310       -0.96800
H          2.13870        0.38650       -0.37380
H          0.53740       -1.62860        1.39640
H          2.33940       -0.45110        2.68750
H          1.89470        1.09350        1.98280
