12
gdb 20314	6.63815	1.31449	1.10462	3.7361	60.99	-0.2747	-0.0413	0.2334	976.9591	0.082517	-377.464262	-377.457256	-377.456311	-377.49617	24.957
C         -0.23640       -1.04590       -0.67700
C         -0.06840        0.01770       -0.14670
C          0.13500        1.30920        0.49770
C          1.42390        1.96320        0.10470
C          2.44350        1.61020       -0.72320
N          3.36360        2.63040       -0.67510
N          2.98710        3.54350        0.09550
O          1.70330        3.14820        0.63920
H         -0.39130       -1.98790       -1.14300
H         -0.69350        1.98820        0.25600
H          0.11540        1.19540        1.58970
H          2.57980        0.73150       -1.32770
