12
gdb 16793	3.70586	2.1683	1.48728	2.753	55.49	-0.2666	-0.0394	0.2273	776.1418	0.08609	-414.699747	-414.693729	-414.692785	-414.729985	22.838
O          0.04230       -0.03090       -0.07220
C          0.03160        1.16960       -0.00500
N         -1.10290        1.97250        0.12790
C         -0.87440        3.34550        0.01800
O         -1.71930        4.19990       -0.02700
C          0.62900        3.49910       -0.05880
N          1.27230        2.95050        1.15980
C          1.19910        2.12970       -0.07340
H         -2.02790        1.58610        0.24960
H          1.05140        4.34980       -0.57710
H          2.21150        3.34080        1.22860
H          2.09650        1.83970       -0.60390
