12
gdb 23900	4.08655	1.22598	1.15979	3.1476	44.97	-0.2693	0.0135	0.2828	983.6804	0.080149	-546.193927	-546.186195	-546.185251	-546.227408	26.304
F          0.52770        0.32200       -0.03810
C          0.06780        1.57440        0.14840
F          1.11920        2.34890        0.42640
F         -0.46640        1.98900       -1.00630
C         -0.97320        1.60390        1.25890
N         -0.43600        1.11530        2.50470
C         -0.20540        1.94330        3.56720
O         -0.49740        3.11650        3.60560
H         -1.29030        2.63590        1.41860
H         -1.83140        1.01060        0.92740
H         -0.10260        0.16530        2.54680
H          0.26780        1.40410        4.40950
