17
gdb 15121	8.11858	0.75149	0.71747	4.7161	70.31	-0.2539	0.0179	0.2717	1514.2796	0.142982	-360.008238	-359.99979	-359.998846	-360.042259	29.456
N          0.05790       -1.11420        0.31430
C          0.03900        0.03020        0.16100
C          0.00870        1.48610       -0.00350
N          1.35440        2.04130       -0.03400
C          1.36560        3.49550       -0.16760
C          2.77940        4.01790       -0.13150
C          3.05580        5.39850        0.32810
N          3.45400        4.24900        1.16080
H         -0.48870        1.71510       -0.95480
H         -0.63750        1.90340        0.79170
H          1.86380        1.76280        0.79860
H          0.90100        3.74720       -1.13110
H          0.76840        4.00810        0.61310
H          3.43300        3.57830       -0.88120
H          3.87910        5.95940       -0.10390
H          2.21430        6.00730        0.64980
H          2.78730        4.14230        1.92340
