18
gdb 13203	5.42926	1.08328	1.04093	3.0694	69.07	-0.2622	-0.028	0.2342	1176.7722	0.1533	-384.945606	-384.9373	-384.936356	-384.97953	29.931
O          0.52650        1.19520       -0.10170
C          0.19880       -0.15970       -0.09140
C         -1.30090       -0.37510        0.03480
O         -2.03280        0.59510        0.07370
C         -1.81890       -1.78460        0.13360
C         -2.48670       -2.17660        1.49850
C         -3.60060       -2.90770        0.70610
C         -3.18000       -2.10520       -0.55190
H         -0.32770        1.65540       -0.05360
H          0.53230       -0.66710       -1.01420
H          0.69410       -0.68980        0.74030
H         -1.03930       -2.50210       -0.13880
H         -1.88010       -2.75740        2.19630
H         -2.86560       -1.28530        2.00460
H         -3.38800       -3.97510        0.59990
H         -4.62710       -2.79140        1.05970
H         -3.76080       -1.18700       -0.66520
H         -3.14030       -2.62990       -1.50870
