14
gdb 16719	6.22991	1.42841	1.28206	3.6888	70.44	-0.2443	-0.0528	0.1915	915.2545	0.109332	-341.579794	-341.57344	-341.572495	-341.610306	24.255
N          0.05370       -1.12620        0.11740
C         -0.01230        0.03010        0.07350
C         -0.03800        1.44610        0.00970
C         -1.12640        2.23070        0.01640
C         -0.72410        3.65710        0.02380
C          0.07580        4.07540        1.21620
N          0.76000        3.69970       -0.01960
C          1.22590        2.29980       -0.06490
H         -2.15280        1.88810        0.03020
H         -1.27680        4.38620       -0.56100
H          0.15460        5.12920        1.46800
H          0.09790        3.39090        2.06160
H          1.92220        2.09530        0.75580
H          1.76480        2.12290       -1.00300
