12
gdb 23752	3.28149	2.23034	1.32784	2.1211	59.24	-0.245	-0.0123	0.2326	816.2049	0.08412	-430.651947	-430.64599	-430.645046	-430.682054	23.035
F          0.02310        0.01650        0.00330
C         -0.02150        1.34860        0.01090
C         -1.23500        2.01600        0.03030
C         -1.24990        3.41020        0.03780
C         -0.05440        4.12340        0.02600
C          1.16520        3.44780        0.00650
C          1.17570        2.06280       -0.00100
F          2.32650        1.39050       -0.01960
H         -2.14920        1.43450        0.03920
H         -2.19850        3.93390        0.05300
H         -0.06440        5.20700        0.03180
H          2.11120        3.97600       -0.00310
