15
gdb 18565	3.8796	2.04365	1.66896	3.813	60.85	-0.2489	0.027	0.2759	783.9955	0.121324	-399.823098	-399.816725	-399.815781	-399.853688	24.381
O         -0.04570        0.00200        0.05070
C         -0.02700        1.20080        0.00090
N         -1.01770        2.15520       -0.05980
C         -0.11970        3.31230        0.03580
C         -0.00780        3.95940        1.41940
O          0.71810        3.03740        2.21920
C          1.73120        2.48110        1.38650
C          1.07170        2.29690        0.01740
H         -2.00840        2.07340        0.12150
H         -0.21620        4.02510       -0.78600
H          0.53080        4.91790        1.32920
H         -0.97000        4.14410        1.90500
H          2.59380        3.16250        1.30950
H          2.06050        1.54280        1.83900
H          1.75360        2.30420       -0.83190
