11
gdb 23816	3.37026	2.28692	1.36243	1.1002	58.62	-0.2455	-0.0661	0.1793	791.0759	0.072267	-438.642949	-438.636876	-438.635931	-438.673333	22.634
F          0.02620        0.05560        0.15220
C          0.00980        1.37530        0.04420
C         -1.15790        2.03500       -0.01470
O         -1.26140        3.38170       -0.12530
N         -0.11650        4.15580       -0.18380
C          1.01260        3.54390       -0.12900
C          1.26220        2.09880       -0.00970
N          2.40530        1.52050        0.04240
H         -2.12780        1.55620        0.02030
H          1.86970        4.21280       -0.18010
H          3.15880        2.20960       -0.01070
