16
gdb 10793	4.13764	1.59221	1.24766	0.0007	64.7	-0.2504	-0.0345	0.2159	940.964	0.131106	-383.795287	-383.787978	-383.787034	-383.827385	26.991
O          0.00380       -0.09290        0.04980
C         -0.01330        1.11390        0.01210
C         -1.30830        1.91870        0.00820
C         -1.33810        2.95900       -1.13520
C         -0.06650        3.79940       -1.17350
O         -0.08360        5.00620       -1.21210
C          1.22840        2.99440       -1.17000
C          1.25840        1.95420       -0.02670
H         -2.15230        1.22890       -0.05450
H         -1.37620        2.44460        0.97050
H         -1.41730        2.43120       -2.09550
H         -2.19890        3.62530       -1.04950
H          1.29610        2.46860       -2.13230
H          2.07250        3.68430       -1.10750
H          1.33790        2.48200        0.93360
H          2.11910        1.28780       -0.11250
