12
gdb 20767	3.55749	1.92493	1.25882	1.3157	62.26	-0.284	-0.0498	0.2341	877.9955	0.084386	-377.539077	-377.532196	-377.531252	-377.57048	24.313
C         -0.03560        1.48310        0.05260
C         -0.01280       -0.00850        0.04290
N         -0.03580       -0.68110       -1.07880
O         -0.00440       -2.03590       -0.72340
C          0.03670       -2.13970        0.59930
C          0.03500       -0.90050        1.17090
C          0.07090       -0.56290        2.54300
N          0.10040       -0.25980        3.66010
H          0.85550        1.87930        0.54910
H         -0.07210        1.86190       -0.96980
H         -0.90740        1.85190        0.60190
H          0.06440       -3.13640        1.01170
