14
gdb 1882	4.88189	2.32789	1.93628	4.1525	54.78	-0.255	0.0311	0.286	681.0938	0.114594	-361.72914	-361.722725	-361.721781	-361.759506	23.756
O         -0.45130        1.40020        0.34420
C         -0.00890        0.09050        0.02950
C          0.68590       -0.59350        1.21990
O         -0.36350       -1.14410        2.02220
C         -1.50940       -1.28090        1.28140
N         -2.59080       -1.76160        1.71570
C         -1.25560       -0.77980       -0.12440
H          0.31890        1.94890        0.52420
H          0.63040        0.08880       -0.86320
H          1.35450       -1.39800        0.88550
H          1.25730        0.10730        1.83590
H         -2.49180       -2.04130        2.69310
H         -2.10660       -0.22510       -0.51770
H         -1.05990       -1.63130       -0.78460
