17
gdb 12594	3.24313	2.12854	1.31678	1.4875	71.92	-0.2156	0.0044	0.22	925.1969	0.142896	-360.082566	-360.074374	-360.073429	-360.115244	29.412
C         -0.00810        1.45670       -0.01240
N          0.01000        0.00960        0.00600
C         -0.01060       -0.77760       -1.14150
N         -0.04730       -0.29060       -2.31660
C          0.02100       -2.20300       -0.59320
N          0.05790       -2.08610        0.86660
C          0.04940       -0.82970        1.12220
C          0.07850       -0.25110        2.49820
H          0.88970        1.87600        0.45450
H         -0.03930        1.76120       -1.05980
H         -0.89000        1.85440        0.50130
H         -0.05670       -1.03230       -3.01420
H         -0.86180       -2.76890       -0.91410
H          0.89920       -2.74760       -0.96030
H          0.10740       -1.06540        3.22180
H          0.95710        0.38770        2.64010
H         -0.80660        0.36630        2.68640
