18
gdb 10539	2.94846	1.40305	1.06801	1.6257	74.28	-0.2602	0.026	0.2862	1156.5092	0.150988	-347.753387	-347.744404	-347.74346	-347.787172	32.665
C         -0.09980        1.58250        0.12200
C         -0.16690        0.05550        0.19740
C          0.95260       -0.54260        1.05900
C          0.88060       -2.05680        1.15810
C          1.18500       -2.73910        2.43360
O         -0.16400       -2.56040        2.01770
C          1.06470       -2.78820       -0.07600
C          1.23450       -3.36760       -1.11550
H          0.84870        1.91830       -0.31220
H         -0.90870        1.98380       -0.49600
H         -0.18590        2.03450        1.11650
H         -1.13240       -0.25700        0.61200
H         -0.10970       -0.37020       -0.81110
H          1.93190       -0.26290        0.65020
H          0.89760       -0.13530        2.07510
H          1.55050       -3.76420        2.41690
H          1.50110       -2.13870        3.28620
H          1.37690       -3.88950       -2.02950
