13
gdb 23653	3.84549	1.92156	1.2915	1.3517	62.06	-0.2627	-0.0395	0.2232	869.8139	0.096202	-402.817019	-402.810357	-402.809413	-402.848533	24.026
C         -0.01270        1.48330        0.01750
C          0.00380       -0.01770       -0.01060
N         -0.10060       -0.62490       -1.19500
C         -0.08210       -1.96340       -1.18220
C          0.03740       -2.70800       -0.02060
C          0.13780       -1.95120        1.14240
F          0.25600       -2.57210        2.30700
N          0.12410       -0.64190        1.17530
H          0.90860        1.86190        0.47140
H         -0.11380        1.87940       -0.99260
H         -0.84120        1.83960        0.63780
H         -0.16730       -2.45630       -2.14760
H          0.05260       -3.78930       -0.00550
