17
gdb 13344	5.05236	1.25769	1.15314	2.9104	66.36	-0.2637	0.0244	0.2882	1067.3615	0.143383	-401.009791	-401.001972	-401.001028	-401.043338	27.498
N         -0.17090        1.11760       -0.61170
C         -0.09320       -0.06550       -0.17970
O         -1.19330       -0.84930       -0.16670
C         -0.98820       -2.20890        0.23660
C         -2.37450       -2.87940        0.28750
C         -2.34500       -3.87780       -0.89450
C         -1.11890       -3.41890       -1.69360
O         -0.22120       -2.90740       -0.70030
H          0.73630        1.57300       -0.53250
H          0.80440       -0.56000        0.21230
H         -0.43270       -2.21950        1.18040
H         -2.53340       -3.37880        1.24490
H         -3.14420       -2.11530        0.17070
H         -2.19710       -4.89920       -0.53370
H         -3.26190       -3.85870       -1.48730
H         -0.59990       -4.22050       -2.22270
H         -1.37890       -2.62890       -2.41040
