20
gdb 20050	4.55312	1.40521	1.20945	0.069	79.52	-0.2338	0.0322	0.2661	1056.4285	0.178719	-311.869216	-311.861661	-311.860716	-311.901487	29.256
C         -0.20470        1.18910       -0.36700
C          1.23960        0.88580       -0.04060
C          0.18630       -0.17750        0.13240
C         -0.22420       -0.64260        1.51650
C         -1.64510       -1.28330        1.49950
C         -1.36450       -2.76660        1.50460
C         -0.09190       -3.03390        1.79220
C          0.71100       -1.77820        2.03200
H         -0.74820        1.83960        0.31120
H         -0.48490        1.30440       -1.40830
H          1.94510        0.79410       -0.85910
H          1.65830        1.33410        0.85510
H          0.18760       -0.97200       -0.61130
H         -0.19470        0.22120        2.18910
H         -2.23180       -0.99740        2.38390
H         -2.22560       -0.95630        0.62880
H         -2.13520       -3.50810        1.32290
H          0.33550       -4.02700        1.88130
H          1.67540       -1.77570        1.51050
H          0.94040       -1.66370        3.10080
