19
gdb 18527	5.5926	1.12518	1.0523	1.6346	71.79	-0.231	0.0838	0.3148	1174.9575	0.165584	-364.997107	-364.988996	-364.988052	-365.030112	29.608
C          0.77530        1.30540       -2.55160
O          0.82570       -0.06590       -2.24000
C         -0.29740       -0.50660       -1.50710
C         -0.10290       -1.98490       -1.22660
C          0.93760       -2.46310       -0.17770
C         -0.23120       -3.16380        0.51240
C         -1.28750       -2.20040        0.86380
N         -1.23960       -2.69520       -0.52950
H         -0.10180        1.55230       -3.17070
H          0.73960        1.93020       -1.64470
H          1.68200        1.54800       -3.11130
H         -0.39590        0.07780       -0.57770
H         -1.22850       -0.36310       -2.08220
H          0.05280       -2.48570       -2.18540
H          1.68310       -3.13940       -0.59760
H          1.45110       -1.69600        0.41000
H         -0.23170       -4.18730        0.87270
H         -2.15770       -2.57290        1.39550
H         -1.02960       -1.16990        1.09410
