14
gdb 15206	2.59679	1.99629	1.53441	2.8107	68.57	-0.2525	-0.0052	0.2472	870.693	0.105401	-341.525871	-341.517786	-341.516842	-341.558265	28.975
C         -0.18080        1.49390        0.16350
N          0.03710        0.05850       -0.00610
C          0.53890       -0.43890       -1.28970
C          0.84230        0.43540       -2.38710
C          1.06240        1.15260       -3.32620
C          1.40750       -0.44900       -0.04510
C          2.54070        0.43960        0.03830
N          3.45320        1.14170        0.14790
H          0.54520        2.12520       -0.36260
H         -1.18290        1.72830       -0.20430
H         -0.13980        1.72000        1.23200
H          0.11150       -1.39760       -1.57650
H          1.27410        1.78730       -4.15150
H          1.55770       -1.39570        0.46790
