20
gdb 6215	3.51064	1.61186	1.5001	1.2681	77.05	-0.23	0.0186	0.2486	983.3882	0.175249	-349.026385	-349.017694	-349.01675	-349.059105	33.153
C          0.28210        1.57690       -0.12370
C         -0.01080        0.09030        0.08470
O          0.43820       -0.66010       -1.04700
C          1.29570       -1.74950       -0.65090
C          0.60540       -3.07750       -1.00090
C          2.62890       -1.61490       -1.39920
C          1.44090       -1.55840        0.84190
C          0.70340       -0.53610        1.25390
H          1.36000        1.74950       -0.19390
H         -0.18720        1.92440       -1.04840
H         -0.11560        2.16940        0.70730
H         -1.10290       -0.03600        0.18660
H          0.42420       -3.13320       -2.07860
H          1.22650       -3.93220       -0.71230
H         -0.35440       -3.15730       -0.48350
H          3.10850       -0.66350       -1.15570
H          3.31160       -2.42870       -1.13280
H          2.45790       -1.65070       -2.47940
H          2.06390       -2.20140        1.45190
H          0.59920       -0.17300        2.26910
