16
gdb 19648	5.07532	1.79404	1.71913	1.1114	67.46	-0.2162	0.0833	0.2996	811.2209	0.129543	-346.472916	-346.466216	-346.465272	-346.503709	26.167
C          0.13290        1.32940       -0.13350
O         -0.15980       -0.02880        0.16830
C          0.57340       -0.52760        1.19990
C          0.54780       -0.25710        2.75210
C          2.01440       -0.65930        2.82720
C          0.92820       -1.71350        2.98280
C          0.94620       -1.96760        1.44670
C          2.05150       -0.90770        1.29110
H          1.18890        1.45570       -0.40570
H         -0.49910        1.60990       -0.97840
H         -0.09230        1.98580        0.71780
H         -0.01880        0.41080        3.38730
H          2.77280       -0.33360        3.52720
H          0.69370       -2.35540        3.82180
H          0.75300       -2.84140        0.83980
H          2.84110       -0.86020        0.55380
