11
gdb 23772	3.34867	2.44053	1.41168	4.9009	56.45	-0.2367	-0.0592	0.1775	770.3799	0.073838	-438.741301	-438.735398	-438.734454	-438.771458	22.194
F         -0.00290        0.05690        0.00420
C         -0.05080        1.37580        0.01130
N         -1.18890        1.95700        0.02930
C         -1.22110        3.33170        0.03680
C         -0.08180        4.06370        0.02550
N          1.12510        3.41510        0.00640
C          1.27490        2.02910       -0.00260
O          2.35560        1.47870       -0.01960
H         -2.19620        3.79930        0.05190
H         -0.05770        5.14540        0.03070
H          1.99220        3.93530       -0.00230
