20
gdb 16968	3.13759	2.10577	1.91177	1.3233	72.88	-0.2561	0.077	0.3331	828.0424	0.180946	-349.027401	-349.020577	-349.019633	-349.058053	28.204
O          0.01540        1.43170       -0.10950
C          0.01610        0.01730        0.00940
C          0.64720       -0.52890        1.33520
C         -0.50200       -1.34870        1.96480
C         -1.56910       -0.36720        2.49940
C         -2.18940        0.22700        1.19390
C         -1.42940       -0.51660        0.07130
C         -1.20000       -1.90580        0.70270
H          0.92970        1.73000       -0.11440
H          0.52690       -0.42450       -0.85930
H          1.51970       -1.15760        1.13040
H          0.97160        0.29780        1.97610
H         -0.17070       -2.08560        2.69940
H         -2.32150       -0.89870        3.09060
H         -1.13190        0.40030        3.14490
H         -3.26110        0.01730        1.13170
H         -2.05480        1.30620        1.11640
H         -1.93420       -0.49560       -0.89610
H         -0.55710       -2.55830        0.10230
H         -2.13240       -2.43600        0.91980
