19
gdb 14208	2.72246	2.46061	1.85076	1.6047	75.5	-0.2262	0.0931	0.3193	841.6992	0.165658	-327.876387	-327.868831	-327.867886	-327.907593	29.596
C         -0.12450        1.47450       -0.00310
C         -0.01620       -0.01480       -0.09220
C          0.91800       -0.84270       -0.97590
C          0.10150       -2.07390       -0.50580
C          0.40550       -2.10390        0.99760
N         -0.32740       -0.80760        1.16500
C         -1.06320       -1.07100       -0.11330
C         -2.54570       -1.07900       -0.26670
H          0.78380        1.90670        0.43250
H         -0.26700        1.91870       -0.99450
H         -0.96610        1.76440        0.63170
H          0.74900       -0.61320       -2.03190
H          1.99440       -0.83940       -0.76580
H          0.03290       -2.97260       -1.11740
H         -0.13760       -2.88020        1.54370
H          1.45580       -2.09720        1.31450
H         -2.98060       -0.20270        0.22420
H         -2.83630       -1.05880       -1.32310
H         -2.99130       -1.97180        0.18690
