8
gdb 38	36.49282	4.31175	4.04493	1.7341	28.53	-0.2537	-0.0341	0.2196	303.8129	0.060508	-228.992613	-228.987769	-228.986825	-229.019918	14.78
O          0.19380        1.37170        0.31400
C          0.04990        0.01410       -0.04530
C         -1.40890       -0.39640       -0.20600
O         -1.77730       -1.37230       -0.80360
H         -0.01720        1.91270       -0.45340
H          0.60440       -0.26520       -0.95210
H          0.46740       -0.57520        0.78180
H         -2.11840        0.30080        0.29870
