16
gdb 15238	3.0934	1.56748	1.37436	3.8735	66.36	-0.2274	0.0223	0.2497	966.2468	0.129956	-379.899092	-379.890511	-379.889567	-379.932425	30.442
C          0.32940        1.33680        0.18800
N         -0.29590        0.12430       -0.34170
C          0.48730       -0.51370       -1.34820
C          1.60100       -1.47730       -1.02720
O          1.81560       -1.70120        0.32410
C          0.28840       -1.99580       -1.65180
C         -0.56960       -2.78730       -0.82300
N         -1.23560       -3.43630       -0.13320
H          1.32220        1.17000        0.63260
H          0.43510        2.07200       -0.61760
H         -0.32590        1.77020        0.94810
H         -0.48080       -0.52500        0.41520
H          0.63080        0.10570       -2.23030
H          2.48240       -1.51820       -1.66670
H          1.91620       -2.64730        0.47990
H          0.31150       -2.29590       -2.69390
