15
gdb 14897	4.82988	1.53293	1.21225	4.7276	67.1	-0.2656	-0.0004	0.2651	948.3844	0.120155	-362.675375	-362.668399	-362.667455	-362.706632	25.99
N         -0.01270       -1.14440       -0.07400
C          0.01220        0.00900       -0.02740
C         -0.01340        1.47590        0.04760
C         -0.70670        1.97200        1.32930
C         -0.48150        3.45520        1.46160
C          0.46550        4.08220        0.76870
C          1.40190        3.34840       -0.14900
O          1.32460        1.93620       -0.01540
H         -0.58090        1.84250       -0.82420
H         -1.77680        1.74070        1.27860
H         -0.30810        1.43110        2.19630
H         -1.13060        4.00260        2.13840
H          0.60010        5.15790        0.83940
H          1.21920        3.64430       -1.19780
H          2.44320        3.60470        0.07550
