10
gdb 21618	7.45347	1.38522	1.16861	6.502	55.73	-0.2718	-0.0592	0.2126	908.3227	0.06181	-409.652611	-409.646114	-409.64517	-409.683248	23.307
N         -0.00450        1.33230        0.13060
C         -0.05060       -0.01130        0.04870
N         -1.10840       -0.78080        0.04090
C         -0.52420       -2.01930       -0.00180
N          0.78780       -2.04700       -0.02400
O          1.11330       -0.67920        0.01030
C         -1.27810       -3.23270       -0.02500
N         -1.89760       -4.20750       -0.04440
H          0.85470        1.79660       -0.11250
H         -0.86470        1.82540       -0.04190
