20
gdb 20018	4.21245	1.26142	1.1399	2.7351	75.28	-0.2324	0.0692	0.3016	1137.0125	0.178469	-345.135123	-345.126728	-345.125783	-345.168279	31.171
C         -0.02610        1.27380       -0.61870
C          0.01020       -0.00060        0.23230
C         -1.36110       -0.61990        0.38990
N         -1.90170       -1.38650       -0.75130
C         -1.62010       -2.08150        0.51560
C         -0.53980       -3.12510        0.46810
C         -0.69410       -4.29510       -0.43290
N          0.30380       -3.25230       -0.72640
H          0.97210        1.70980       -0.72150
H         -0.40630        1.05500       -1.62140
H         -0.67700        2.03410       -0.17180
H          0.69570       -0.72820       -0.21060
H          0.40240        0.22860        1.23190
H         -2.07550        0.02170        0.90790
H         -2.89700       -1.22460       -0.86800
H         -2.47390       -2.35820        1.13430
H         -0.00640       -3.26480        1.40680
H         -0.28700       -5.26190       -0.15020
H         -1.58670       -4.33630       -1.05270
H         -0.09410       -2.63280       -1.43290
