19
gdb 6165	3.47753	1.51169	1.32899	3.1744	73.32	-0.2395	0.0152	0.2547	1029.6492	0.162607	-365.080876	-365.07149	-365.070546	-365.114835	33.644
C         -0.07600        1.37860       -0.17070
C         -0.00800       -0.13400       -0.05360
O          0.95400       -0.78700       -0.39880
N         -1.11120       -0.71270        0.55960
C         -2.51010       -0.57810        0.20820
C         -1.81110       -1.91740        0.15910
C         -1.50230       -2.51920       -1.19810
C         -2.06130       -2.91940        1.26860
H          0.92930        1.76890       -0.32990
H         -0.69820        1.65980       -1.02820
H         -0.52140        1.82770        0.72070
H         -3.19040       -0.34540        1.02460
H         -2.75680       -0.10380       -0.73990
H         -1.41520       -1.75070       -1.97030
H         -0.55570       -3.06520       -1.16870
H         -2.29730       -3.21320       -1.48980
H         -2.92580       -3.54900        1.03240
H         -1.19200       -3.57300        1.39600
H         -2.24660       -2.41180        2.21830
