13
gdb 1417	4.20358	1.79572	1.32715	3.9195	57.19	-0.2778	-0.0018	0.276	865.6651	0.098627	-344.439723	-344.431893	-344.430949	-344.472302	26.632
C          0.03160        1.83830       -0.06120
C         -0.07840        0.33230        0.16700
O         -1.48670        0.04110        0.33370
C         -1.80360       -1.10070        0.97850
O         -2.93250       -1.44760        1.14890
C          0.48350       -0.44880       -0.93360
C          0.94950       -1.08900       -1.83680
H          1.08050        2.12220       -0.17340
H         -0.50900        2.12060       -0.96710
H         -0.39740        2.37180        0.79010
H          0.44240        0.06600        1.09710
H         -0.91650       -1.66040        1.33240
H          1.35800       -1.65940       -2.63470
