12
gdb 8612	2.13821	2.10952	1.48952	1.4363	67.95	-0.2719	-0.0125	0.2593	896.0475	0.078271	-344.068571	-344.059848	-344.058904	-344.101239	31.874
O         -0.05680        1.43030        0.01040
C         -0.00170        0.00140        0.00220
C         -1.39370       -0.47790        0.01290
C         -2.52070       -0.88720        0.02150
C          0.68760       -0.48580       -1.21180
C          1.27120       -0.84260       -2.19840
C          0.71070       -0.49890        1.19730
C          1.31310       -0.86630        2.16860
H          0.85660        1.74320        0.00350
H         -3.52090       -1.24520        0.02870
H          1.77950       -1.16690       -3.07320
H          1.83780       -1.19980        3.03010
