12
gdb 23675	3.73391	1.95935	1.28504	1.5287	59.28	-0.2375	-0.0238	0.2137	841.885	0.085529	-422.703019	-422.697096	-422.696152	-422.733075	23.039
O          0.10200        1.32470        0.07410
C          0.06830       -0.02120        0.05290
N          0.07980       -0.61130       -1.14030
C          0.04690       -1.92880       -1.16040
F          0.05930       -2.48490       -2.36730
C          0.00150       -2.74760       -0.04240
C         -0.00960       -2.10420        1.19480
C          0.02400       -0.71950        1.26270
H          0.12960        1.61180       -0.84890
H         -0.02350       -3.82360       -0.14700
H         -0.04450       -2.69050        2.10680
H          0.01700       -0.17930        2.20000
