18
gdb 12449	2.99741	2.02508	1.37539	2.8674	73.06	-0.2273	-0.0117	0.2156	924.4954	0.155538	-347.836311	-347.828925	-347.82798	-347.868093	28.239
O         -0.01990       -0.10000       -0.01030
C          0.00160        1.10870       -0.01030
C         -1.27900        1.93410        0.00260
C         -1.50040        2.80800        1.25560
C         -0.41540        3.87330        1.50820
C          0.90010        3.31090        1.99730
C          1.65710        2.44310        1.32700
C          1.32300        1.88090       -0.04100
H         -1.26160        2.58980       -0.87990
H         -2.11220        1.23620       -0.11490
H         -2.46830        3.30900        1.13720
H         -1.58670        2.16400        2.13820
H         -0.25850        4.44650        0.58160
H         -0.79400        4.58970        2.24350
H          1.23760        3.64000        2.97690
H          2.57530        2.08020        1.77920
H          2.10050        1.19190       -0.37440
H          1.24670        2.69570       -0.77410
