14
gdb 20495	8.98389	1.00228	0.90679	2.8674	78.12	-0.2216	-0.0115	0.2102	1233.2611	0.10869	-341.589712	-341.582096	-341.581152	-341.623765	26.369
C         -0.09160        1.46310        0.01060
C         -0.00160        0.01220        0.00260
C          0.08140       -1.19180       -0.00410
C          0.16200       -2.59930       -0.01180
C          1.24120       -3.47450       -0.02280
C          0.66580       -4.75770       -0.02590
N         -0.66610       -4.70780       -0.01760
N         -0.94760       -3.39740       -0.00920
H          0.90570        1.91620        0.00340
H         -0.63160        1.83460       -0.86760
H         -0.61490        1.82590        0.90230
H          2.28360       -3.20310       -0.02770
H          1.16390       -5.71590       -0.03380
H         -1.90650       -3.09230       -0.00190
