11
gdb 732	9.1962	3.39821	2.5201	3.2522	47.4	-0.2549	-0.008	0.247	496.1172	0.08571	-285.288405	-285.283174	-285.28223	-285.317103	18.255
C         -0.02100        1.52520        0.02030
C          0.00120        0.02930        0.00050
C         -0.06260       -0.81920       -1.05970
O         -0.01320       -2.09960       -0.65980
N          0.08800       -2.13160        0.72560
C          0.09570       -0.87670        1.09920
H          0.89040        1.93430        0.46940
H         -0.10290        1.92950       -0.99190
H         -0.86810        1.90640        0.60060
H         -0.14270       -0.66210       -2.12460
H          0.16880       -0.64650        2.15360
