14
gdb 8590	5.24221	1.82218	1.71632	3.5472	63.46	-0.2371	-0.0194	0.2177	763.8157	0.108156	-378.575126	-378.569242	-378.568298	-378.6049	23.758
O         -0.14270       -0.06930       -0.23470
C         -0.03290        1.09850       -0.03180
N         -1.01690        2.12830        0.13420
C          0.01410        3.00920        0.70360
C          1.00400        4.22670        0.65290
N          1.88810        3.04610        1.16430
C          0.69350        2.69090        2.05230
C          1.09610        2.22550        0.03580
H         -1.94230        1.94000        0.50720
H          1.29950        4.61330       -0.32300
H          0.89980        5.01610        1.40130
H          0.55090        3.38150        2.88620
H          0.69770        1.64830        2.38190
H          1.43520        2.50560       -0.96240
