12
gdb 129	12.29542	2.95298	2.69965	3.694	43.88	-0.2499	0.0335	0.2834	490.704	0.102695	-248.436061	-248.429994	-248.429049	-248.466001	19.864
C         -0.04100        1.44150       -0.21570
C          0.03790        0.02790        0.36340
N         -1.26150       -0.62340        0.44410
C         -1.60990       -1.69290       -0.32040
O         -0.89100       -2.24840       -1.12390
H          0.95450        1.89520       -0.24950
H         -0.44600        1.42230       -1.23140
H         -0.68130        2.08820        0.39450
H          0.65500       -0.61500       -0.26770
H          0.49340        0.05130        1.36110
H         -1.96090       -0.23580        1.05760
H         -2.65150       -2.01510       -0.11930
