22
gdb 8909	3.37358	1.22184	0.96032	0.6727	84.35	-0.2576	0.0572	0.3148	1282.6668	0.197546	-313.048996	-313.038745	-313.037801	-313.083784	37.791
C         -0.01310        1.59370        0.10000
C         -0.03240        0.06710       -0.04140
C          0.73240       -0.47170       -1.26610
C          2.20500       -0.03760       -1.25230
C          0.62210       -2.02480       -1.37160
C         -0.82980       -2.55180       -1.36810
C          1.30780       -2.52140       -2.56630
C          1.83540       -2.93610       -3.56460
H          0.99110        1.97860        0.29810
H         -0.38260        2.07940       -0.81050
H         -0.65520        1.91170        0.92740
H          0.38340       -0.38900        0.86860
H         -1.07720       -0.25480       -0.09450
H          0.26090       -0.05850       -2.16960
H          2.74600       -0.46100       -2.10160
H          2.30200        1.04980       -1.30140
H          2.70200       -0.37550       -0.33410
H          1.13500       -2.44610       -0.49360
H         -1.41690       -2.07270       -2.15810
H         -0.83980       -3.62930       -1.55020
H         -1.31990       -2.36690       -0.40980
H          2.31360       -3.30540       -4.43770
