18
gdb 12679	2.6208	2.19791	1.44223	1.9277	67.09	-0.2417	-0.0226	0.2191	915.1258	0.152926	-384.970477	-384.962324	-384.961379	-385.002895	30.292
C          0.51840        1.35490       -0.45080
C         -0.08220        0.08790        0.15750
O         -0.16420       -0.96680       -0.82250
C          1.04860       -1.69390       -0.82160
C          1.68120       -1.46410        0.55130
O          2.72600       -1.91260        0.94390
C          0.73210       -0.53470        1.31050
C          1.43550        0.37620        2.31070
H          1.56680        1.21420       -0.73670
H         -0.04430        1.62970       -1.34680
H          0.47200        2.18950        0.25510
H         -1.11470        0.28760        0.45870
H          0.84150       -2.75580       -0.99300
H          1.74690       -1.35700       -1.60380
H          0.05190       -1.21140        1.84970
H          2.09860        1.08620        1.80920
H          0.71690        0.94290        2.90990
H          2.04980       -0.22760        2.98390
