8
gdb 3910	6.30167	3.0235	2.04319	3.1252	43.15	-0.2947	-0.1404	0.1543	541.8821	0.042699	-391.391111	-391.385777	-391.384833	-391.421267	17.906
O          0.01710       -0.04750        0.00230
C          0.03160        1.14130        0.00880
O         -1.18270        1.82660        0.02840
N         -1.25020        3.24390        0.03700
N         -0.19450        3.88450        0.02650
C          1.03570        3.19490        0.00720
N          1.19170        1.92860       -0.00230
H          1.90120        3.85190       -0.00200
