12
gdb 4330	3.95631	2.0406	1.34623	3.7566	61.1	-0.2335	-0.0517	0.1818	825.5774	0.085662	-414.701113	-414.694907	-414.693962	-414.731651	23.54
O         -0.04130        1.31130        0.00990
C          0.01890       -0.02340        0.00250
N          1.17590       -0.59880       -0.00710
C          1.25750       -1.96760       -0.01480
N          2.34500       -2.60960       -0.02420
O          0.02860       -2.70670       -0.01170
C         -1.13940       -2.06100       -0.00170
C         -1.23900       -0.72070        0.00590
H          0.87650        1.62560        0.00630
H          2.16690       -3.61230       -0.02850
H         -1.98340       -2.74230       -0.00050
H         -2.18620       -0.20390        0.01400
