12
gdb 4280	4.01688	2.02149	1.34533	5.9358	59.07	-0.2384	-0.0294	0.209	826.4578	0.085575	-414.718535	-414.711985	-414.711041	-414.749231	24.496
N          0.05900        1.33600        0.12240
C         -0.03850       -0.01340        0.04260
N         -1.16510       -0.62570        0.02230
C         -1.18900       -2.02870       -0.00580
O         -2.22870       -2.65230       -0.02090
C          0.13460       -2.68470       -0.02180
C          1.24220       -1.94400       -0.01040
O          1.20530       -0.57830        0.02280
H          0.93500        1.77340       -0.10750
H         -0.79130        1.85090       -0.03180
H          0.18520       -3.76480       -0.04730
H          2.26300       -2.30370       -0.02400
