17
gdb 17525	4.55346	1.72681	1.59419	0.96	67.11	-0.2412	0.0564	0.2976	848.6879	0.143258	-363.796997	-363.789976	-363.789032	-363.82832	26.993
O         -0.03540        1.39600        0.04150
C          0.02130       -0.02310       -0.01230
C         -1.39310       -0.52360        0.00590
C         -2.28280       -0.42170        1.26420
C         -2.88160       -1.71650        0.74930
C         -2.92040       -1.66170       -0.74470
C         -2.34650       -0.33150       -1.19380
N         -1.65120       -2.06890       -0.04410
H          0.86500        1.73310        0.03150
H          0.52110       -0.37840       -0.92750
H          0.56720       -0.44390        0.84700
H         -1.70040       -0.59170        2.17400
H         -2.91570        0.46240        1.38540
H         -3.41720       -2.47660        1.30720
H         -3.48560       -2.37980       -1.32840
H         -2.98320        0.55790       -1.21690
H         -1.81240       -0.43330       -2.14240
