16
gdb 2584	2.99498	2.68506	1.70329	4.0838	64.99	-0.2842	0.0365	0.3207	783.5522	0.136606	-288.652757	-288.645259	-288.644315	-288.684211	27.292
C          0.07050        1.49000       -0.26590
C         -0.04740        0.03640        0.20140
C         -1.45980       -0.52890        0.07990
C         -1.92110       -1.09270       -1.25700
C         -1.64950       -2.02580       -0.11480
C         -2.45550        0.14830        0.87450
N         -3.24050        0.70260        1.51940
H          1.09800        1.84860       -0.15680
H         -0.21370        1.59170       -1.31830
H         -0.57940        2.14550        0.32170
H          0.61900       -0.60320       -0.38890
H          0.28140       -0.04930        1.24370
H         -2.95040       -0.92610       -1.55040
H         -1.20410       -1.04410       -2.06930
H         -0.74530       -2.62400       -0.13510
H         -2.49360       -2.49570        0.37540
