19
gdb 13486	3.09589	1.67046	1.15275	2.4038	72.44	-0.2418	-0.0245	0.2172	1061.8015	0.164264	-365.064134	-365.055448	-365.054504	-365.097339	31.985
C         -0.01080        1.49480       -0.13970
C          0.04190       -0.02540        0.04940
C          0.82580       -0.42730        1.30570
C         -1.37410       -0.60880        0.09680
N         -2.19590       -0.43140       -1.13890
C         -2.55730       -1.87260       -1.20710
C         -1.53700       -2.12910       -0.08770
O         -1.04070       -3.09970        0.40210
H          0.99740        1.91040       -0.23720
H         -0.57530        1.75490       -1.03980
H         -0.48900        1.98150        0.71950
H          0.53740       -0.45990       -0.82900
H          0.37440        0.00970        2.20490
H          0.84310       -1.51320        1.43200
H          1.85850       -0.06930        1.24790
H         -1.87920       -0.27640        1.01900
H         -2.99270        0.18140       -1.01580
H         -3.58060       -2.12680       -0.89700
H         -2.35530       -2.35160       -2.17130
