17
gdb 18004	4.83879	1.48859	1.31073	4.3197	70.3	-0.2373	0.0271	0.2644	954.2792	0.143463	-363.856967	-363.849741	-363.848797	-363.88949	26.444
O         -0.04840       -0.01150        0.50190
C          0.00960        1.19940        0.42350
N          1.09880        1.89100        0.02580
C          2.43500        1.42290       -0.35360
C          2.82890        2.90140       -0.61360
C          2.46780        3.43520       -2.02860
C          1.08010        3.92180       -1.50450
C          1.39920        3.31710       -0.11160
H         -0.83540        1.87300        0.67900
H          2.96350        0.93880        0.47500
H          2.45240        0.75450       -1.22110
H          3.74820        3.25760       -0.15320
H          3.11440        4.24350       -2.37590
H          2.43720        2.66690       -2.80550
H          0.99510        5.01140       -1.47480
H          0.19380        3.51570       -1.99670
H          1.19650        3.91870        0.77760
