12
gdb 4235	3.49806	2.41324	1.97382	1.7532	39.45	-0.2918	0.0719	0.3637	666.4632	0.085292	-492.026657	-492.019416	-492.018471	-492.058075	25.601
C          0.02480        1.56500       -0.00720
C          0.02810        0.03820        0.04590
O          0.71700       -0.47480        1.16630
C         -1.39570       -0.52520        0.02910
F         -2.10590       -0.04190       -1.00130
F         -1.40410       -1.85660       -0.05740
F         -2.04230       -0.18920        1.16470
H          1.05430        1.92700        0.03090
H         -0.44700        1.92790       -0.92340
H         -0.52330        1.97820        0.84610
H          0.53640       -0.37240       -0.83240
H          0.26180       -0.16240        1.95720
