14
gdb 10582	2.7575	1.88161	1.33712	0.917	71.16	-0.2403	0.0184	0.2587	924.0213	0.103276	-345.311715	-345.303279	-345.302335	-345.344117	31.428
O          0.06310        1.37170       -0.02190
C          0.03120       -0.00840        0.03900
C         -0.39080       -0.73790        1.26740
C         -1.32810       -0.75720        0.03470
C         -2.48070        0.10050        0.08730
C         -3.38660        0.89300        0.12080
C         -1.44220       -1.97320       -0.72230
C         -1.50930       -2.99640       -1.35000
H         -0.84450        1.70250        0.03840
H          0.79980       -0.45950       -0.57980
H          0.08930       -1.67820        1.51180
H         -0.73600       -0.14950        2.10970
H         -4.21830        1.55270        0.15940
H         -1.57990       -3.89650       -1.90860
