17
gdb 1148	3.47856	2.53836	1.94725	2.4283	60.54	-0.2293	0.0617	0.2909	740.7324	0.14533	-346.842529	-346.834332	-346.833388	-346.873856	31.223
C         -0.09200        1.52680       -0.09900
C          0.04510        0.03020        0.04370
O         -1.11770       -0.67580       -0.34530
C          1.37080       -0.67490       -0.18920
C          0.74450       -0.64960        1.19960
C          1.39880        0.10760        2.32780
O          0.15570       -1.82860        1.66530
H          0.79560        2.04970        0.26480
H         -0.22910        1.80060       -1.15230
H         -0.96090        1.88890        0.45960
H         -1.08380       -0.81860       -1.29700
H          1.34270       -1.62660       -0.71040
H          2.24760       -0.06590       -0.38660
H          1.93560        0.99010        1.97240
H          0.65460        0.42140        3.06670
H          2.11860       -0.54490        2.83250
H         -0.62430       -1.97080        1.11030
