18
gdb 7559	3.24704	1.20907	1.03136	1.5959	64.35	-0.2497	0.0679	0.3176	1168.8377	0.151159	-422.042951	-422.033639	-422.032695	-422.076883	33.997
O          0.03240        1.45630        0.21000
C         -0.02100        0.04180        0.28860
C         -1.34320       -0.53260       -0.22660
C         -1.41420       -2.04220       -0.12620
O         -0.53400       -2.73930       -0.97430
C         -1.75390       -2.70300        1.20160
C         -2.73240       -2.72550        0.04190
O         -3.87730       -1.92730        0.07790
H         -0.07360        1.70200       -0.71470
H          0.82470       -0.41470       -0.25250
H          0.10550       -0.20060        1.34970
H         -2.17390       -0.08680        0.32600
H         -1.47140       -0.25590       -1.28210
H          0.34520       -2.70840       -0.58240
H         -1.24810       -3.62830        1.45510
H         -1.99250       -2.05360        2.03780
H         -2.83230       -3.66890       -0.49340
H         -4.48160       -2.30390        0.72590
