13
gdb 8987	7.17977	1.01006	0.92191	5.0284	64.63	-0.2627	-0.0755	0.1873	1179.5668	0.092475	-398.561782	-398.553387	-398.552443	-398.59557	28.449
N         -0.06770        1.13560       -0.11190
C         -0.25300       -0.09230        0.09280
O         -0.58750       -0.89600       -0.94760
C         -0.80860       -2.25120       -0.65730
C         -2.11240       -2.49990        0.10710
O         -2.76170       -1.60800        0.59910
C         -2.47730       -3.90000        0.21380
C         -2.74760       -5.07110        0.27870
H          0.18980        1.59920        0.75670
H         -0.15580       -0.62550        1.04650
H         -0.84530       -2.78070       -1.61390
H          0.01450       -2.69620       -0.07540
H         -3.00500       -6.10060        0.34870
