16
gdb 13749	3.4299	1.35332	1.20455	4.1936	67.29	-0.2421	-0.0382	0.2039	1049.0353	0.128087	-383.761636	-383.753166	-383.752222	-383.79539	29.659
C         -0.05930        1.51630        0.06590
C          0.06460        0.02700       -0.18260
O          1.12350       -0.49520       -0.46040
C         -1.20900       -0.75980       -0.07600
C         -1.30680       -2.08160       -0.78020
C         -1.25550       -2.08190        0.72510
C         -0.06160       -2.62300        1.43050
O         -0.13620       -3.17080        2.50450
H          0.91790        1.99140       -0.02170
H         -0.75440        1.96260       -0.65490
H         -0.47600        1.69940        1.06300
H         -2.11400       -0.16880        0.01510
H         -2.24260       -2.34760       -1.25660
H         -0.40550       -2.39480       -1.29710
H         -2.18080       -2.25250        1.26510
H          0.90050       -2.50750        0.89660
