12
gdb 15461	3.96251	1.83735	1.26525	4.4943	66.08	-0.2613	-0.0623	0.199	880.6369	0.083524	-381.355279	-381.348549	-381.347604	-381.386269	24.81
O         -0.01740       -0.00450        0.00400
C          0.02360        1.18860        0.00950
O         -1.10010        1.97550        0.02730
C         -0.73900        3.35270        0.02990
C          0.75640        3.36870        0.01170
C          1.21170        2.10810       -0.00030
C          2.53870        1.62830       -0.01900
C          3.66270        1.19930       -0.03490
H         -1.17780        3.84290       -0.84910
H         -1.15610        3.83390        0.92420
H          1.34480        4.27610        0.00910
H          4.65230        0.81350       -0.04890
