16
gdb 11257	5.41296	1.28478	1.13722	1.1849	72.05	-0.2509	0.0013	0.2522	1034.1281	0.130162	-346.574733	-346.566996	-346.566052	-346.606863	29.306
O         -0.42820        1.55860       -0.58110
C          0.06950        0.34020       -0.02540
C         -1.03250       -0.67740        0.36290
C         -1.06410       -1.73510       -0.78400
C          0.28480       -1.52250       -1.46040
C          0.90400       -0.42790       -1.02500
C         -1.27900       -3.10140       -0.32080
C         -1.44940       -4.22820        0.06210
H         -0.76500        1.35790       -1.46140
H          0.63810        0.66190        0.85240
H         -0.76100       -1.17930        1.29480
H         -1.99300       -0.18060        0.51340
H         -1.86370       -1.49950       -1.50240
H          0.64960       -2.20770       -2.21690
H          1.85650       -0.05600       -1.38520
H         -1.60230       -5.22280        0.40080
