20
gdb 14877	3.61078	1.34318	1.07129	2.0995	72.04	-0.2444	0.074	0.3184	1170.5912	0.175543	-386.113405	-386.104212	-386.103268	-386.147915	32.241
C         -0.26110        1.54290        0.23240
C          0.00170        0.05390       -0.01100
C          0.90930       -0.53620        1.05530
O          0.32690       -0.47880        2.38540
C          0.34380       -1.91270        2.52140
C          1.02450       -2.07630        1.14210
O          0.30850       -2.75190        0.14550
C          0.37790       -4.15580        0.26410
H          0.66710        2.12410        0.18980
H         -0.94530        1.95010       -0.51780
H         -0.70600        1.69490        1.21990
H         -0.93950       -0.50390       -0.02600
H          0.47290       -0.10080       -0.98950
H          1.88180       -0.02370        1.04910
H          0.92030       -2.23630        3.39650
H         -0.66670       -2.33920        2.57120
H          2.05640       -2.45230        1.19360
H         -0.18370       -4.58020       -0.57120
H          1.41810       -4.51420        0.21540
H         -0.06570       -4.51340        1.20560
