18
gdb 12196	2.68227	1.80518	1.62838	1.3478	72.96	-0.2498	0.0377	0.2874	917.6773	0.15241	-347.762683	-347.754212	-347.753268	-347.795193	32.184
C          0.86440        1.43010       -0.00910
C          0.08210        0.11970        0.01100
C          0.61640       -0.97710       -0.95530
C          1.30010       -1.71660        0.24540
C          2.72030       -1.47210        0.39370
C          3.88650       -1.22750        0.57170
C          0.42190       -0.82690        1.20920
O          0.99950       -0.31300        2.37080
H          1.94530        1.25940        0.02320
H          0.64720        1.99250       -0.92320
H          0.59680        2.05430        0.84880
H         -0.98650        0.33290       -0.08770
H         -0.17460       -1.58570       -1.39870
H          1.28950       -0.64140       -1.74630
H          1.10230       -2.79040        0.30940
H          4.92480       -1.04300        0.69870
H         -0.46240       -1.38870        1.52340
H          1.92290       -0.10710        2.17520
