17
gdb 19256	3.26621	1.82133	1.41141	2.9079	69.11	-0.2182	-0.0337	0.1845	913.6089	0.141221	-363.811661	-363.803949	-363.803005	-363.843944	28.532
C         -0.58000        1.45290        0.35170
N         -0.11850        0.08960        0.15250
C          0.30400       -0.34660       -1.17450
C          1.61980        0.23870       -1.60470
C          1.60050       -0.90580       -0.61490
C          1.13650       -0.43040        0.77610
C          2.07120        0.52130        1.48890
O          2.56520        0.28420        2.56320
H          0.07930        2.23500       -0.06030
H         -1.56060        1.56340       -0.12390
H         -0.70690        1.64110        1.42280
H         -0.41030       -0.78070       -1.86580
H          1.94820       -0.04620       -2.59960
H          1.90950        1.24420       -1.31710
H          2.07890       -1.85620       -0.80630
H          0.92020       -1.25510        1.46330
H          2.30920        1.46350        0.94940
