20
gdb 14987	4.22475	1.44793	1.16097	1.042	77.51	-0.242	0.0231	0.265	1088.3737	0.178016	-349.019068	-349.011014	-349.01007	-349.051514	30.571
C         -0.07540        1.54880        0.01940
C          0.00520        0.02060        0.02350
C          0.77130       -0.53790        1.22780
O          0.09100       -0.10000        2.39650
C          0.52170       -0.75510        3.57630
C          0.17480       -2.24510        3.53510
C          0.59780       -2.82210        2.21000
C          0.89530       -2.04010        1.17510
H          0.92440        1.99610       -0.01960
H         -0.63670        1.90960       -0.84790
H         -0.56890        1.91120        0.92420
H         -1.00130       -0.41400        0.03040
H          0.49940       -0.33420       -0.88920
H          1.78920       -0.09850        1.21920
H          1.60980       -0.63190        3.70600
H          0.02410       -0.24800        4.40790
H          0.67600       -2.76740        4.36030
H         -0.90350       -2.38850        3.68950
H          0.66910       -3.90320        2.12190
H          1.23940       -2.46100        0.23350
