22
gdb 15909	2.39728	1.95074	1.23125	1.03	78.87	-0.2399	0.077	0.3169	1085.3884	0.198982	-350.192473	-350.183044	-350.1821	-350.226308	34.695
C          0.01720        1.40050       -0.12870
O          0.01360        0.01660        0.14100
C         -1.26160       -0.58670        0.06750
C         -1.56540       -1.28640       -1.30340
C         -0.89230       -0.78230       -2.57050
C         -1.06270       -2.61940       -0.68140
C         -1.23190       -1.99520        0.73090
C         -0.19410       -2.27980        1.80480
H          1.04120        1.75500        0.01600
H         -0.29200        1.63080       -1.15770
H         -0.64720        1.94500        0.56040
H         -2.02310        0.11440        0.43880
H         -2.65200       -1.32740       -1.44160
H          0.17760       -0.62890       -2.40140
H         -1.00400       -1.51080       -3.38150
H         -1.32340        0.16350       -2.91740
H         -1.62450       -3.52960       -0.90760
H         -0.00710       -2.79330       -0.91570
H         -2.23590       -2.21570        1.11090
H          0.80540       -2.00070        1.46280
H         -0.40140       -1.71660        2.72130
H         -0.18810       -3.34510        2.06110
