16
gdb 4462	3.52808	1.77013	1.19126	2.3044	70.03	-0.1627	0.052	0.2147	986.6914	0.130776	-379.949118	-379.940642	-379.939698	-379.981676	31.093
C          0.13650        1.45200       -0.04360
C         -0.06260       -0.01720        0.00240
C         -1.14460       -0.83290        0.13360
N         -2.48880       -0.47400        0.33600
C         -0.65980       -2.19130        0.11230
C          0.69170       -2.09380       -0.02090
N          1.71900       -3.02920       -0.02460
O          1.08420       -0.80630       -0.08380
H          0.63820        1.84450        0.85140
H          0.73580        1.75500       -0.91120
H         -0.83070        1.95880       -0.12050
H         -2.67250        0.49310        0.09980
H         -3.12300       -1.06240       -0.19090
H         -1.24320       -3.09370        0.20400
H          1.41200       -3.94390       -0.32510
H          2.51490       -2.72310       -0.57030
