18
gdb 9360	5.51611	0.89461	0.79253	3.8853	67.14	-0.2343	0.0655	0.2997	1430.537	0.153093	-418.289684	-418.279763	-418.278819	-418.325703	33.547
C          0.06650        1.39850       -0.17440
N         -0.06740        0.00330        0.19920
C         -1.27870       -0.64220        0.03610
O         -2.31530       -0.05840       -0.23610
N         -1.20900       -2.00950        0.20760
C         -2.42580       -2.79260        0.31230
C         -2.13920       -4.24140       -0.04070
O         -1.15290       -4.70980        0.87550
H          0.79160        1.89480        0.47760
H          0.38240        1.53300       -1.21820
H         -0.90950        1.86830       -0.05200
H          0.76470       -0.56280        0.14840
H         -0.42130       -2.39690        0.70470
H         -2.85310       -2.74840        1.32530
H         -3.16160       -2.36660       -0.37230
H         -3.06700       -4.82780        0.03700
H         -1.77580       -4.30360       -1.07690
H         -0.87840       -5.59050        0.60530
