18
gdb 14402	3.30256	2.56333	2.06131	1.4821	70.36	-0.235	0.0974	0.3324	753.3333	0.155706	-347.772909	-347.766636	-347.765692	-347.802799	26.257
C          0.05750        1.50330       -0.12740
C         -0.04400        0.01170       -0.04000
O          0.45030       -0.72460       -1.16890
C         -0.25290       -1.85310       -0.56820
C          0.65420       -2.14880        0.64170
C          0.36100       -0.78790        1.30580
C         -1.15540       -0.91560        1.60790
C         -1.31020       -0.87640        0.07990
H          1.10850        1.81030       -0.16500
H         -0.44020        1.87580       -1.02770
H         -0.40130        1.97540        0.74670
H         -0.50850       -2.63980       -1.27640
H          0.34210       -2.99670        1.25840
H          1.68720       -2.28650        0.31690
H          1.06660       -0.39110        2.03420
H         -1.48740       -1.79920        2.16080
H         -1.57980       -0.01760        2.06600
H         -2.23840       -0.68520       -0.45680
