15
gdb 21943	6.88404	1.07093	0.98112	2.5196	63.49	-0.2547	-0.0098	0.2449	1144.4836	0.119246	-399.790492	-399.782884	-399.78194	-399.823451	26.681
O         -0.09020        1.45400       -0.09890
C          0.04830        0.04430       -0.09620
C         -1.34800       -0.53870        0.14650
C         -1.35410       -2.02750        0.18210
C         -1.63530       -2.94500        1.14830
C         -1.42880       -4.19010        0.49820
N         -1.05420       -4.04420       -0.74820
O         -1.00570       -2.66620       -0.95270
H          0.76890        1.84140       -0.28970
H          0.43850       -0.33050       -1.05320
H          0.73120       -0.29610        0.69780
H         -1.73540       -0.15680        1.09480
H         -2.01290       -0.17850       -0.64670
H         -1.94410       -2.76050        2.16350
H         -1.54160       -5.18880        0.89630
