20
gdb 19614	3.6099	1.92241	1.59025	0.2136	77.99	-0.2429	0.0983	0.3412	907.31	0.177814	-311.824802	-311.817443	-311.816499	-311.855817	29.696
C          0.04190        1.60130        0.06160
C          0.10670        0.08010       -0.00800
C          0.80610       -0.64060       -1.16410
C          2.28460       -0.82810       -0.78380
C          1.22930       -1.77690       -0.26730
C          1.06050       -0.73930        0.91800
C          2.49790       -0.22580        0.60720
C          3.58450       -0.92690        1.41570
H          1.01690        2.06630       -0.10690
H         -0.64240        1.99140       -0.70040
H         -0.32840        1.93550        1.03790
H         -0.90350       -0.33430        0.09470
H          0.49150       -0.70170       -2.19920
H          3.03160       -1.02260       -1.54440
H          1.10040       -2.84570       -0.35210
H          0.77410       -0.96980        1.94390
H          2.64250        0.85990        0.66600
H          3.45590       -2.01460        1.39030
H          4.58130       -0.69940        1.02160
H          3.56150       -0.60710        2.46350
