17
gdb 13876	4.09248	1.55245	1.4444	2.1131	63.85	-0.2515	0.0204	0.2719	926.6539	0.142753	-401.01509	-401.007261	-401.006317	-401.047496	28.765
C          0.06120        1.53540       -0.08710
C         -0.00130        0.01630        0.07770
O          0.61190       -0.41060        1.28430
C         -1.43120       -0.52680       -0.01240
C         -1.56260       -2.06440        0.13410
N         -2.49010       -2.27130        1.26120
C         -2.73610       -1.11860        1.71700
O         -2.18780       -0.02090        1.12970
H          1.09390        1.87860        0.01310
H         -0.31460        1.84230       -1.06890
H         -0.54790        2.03010        0.67640
H          0.57750       -0.46070       -0.72350
H          0.09060       -0.03880        2.00600
H         -1.92200       -0.14870       -0.91600
H         -1.95640       -2.53970       -0.76840
H         -0.59860       -2.52610        0.37220
H         -3.36920       -0.89650        2.56920
