20
gdb 12525	3.22973	1.81878	1.2322	0.6115	83.71	-0.2092	-0.0197	0.1896	1023.4655	0.178786	-311.890098	-311.882139	-311.881195	-311.92516	30.349
C          0.02550        1.59040        0.01220
C         -0.01520        0.05470        0.00440
C          0.56800       -0.47160       -1.31870
C          0.40640       -1.93690       -1.61240
C          0.28620       -2.95960       -0.75370
C          0.32620       -2.96630        0.70620
C          0.51420       -1.95240        1.56290
C          0.68990       -0.49030        1.25990
H          1.05900        1.95550       -0.03040
H         -0.50860        2.00800       -0.84750
H         -0.43180        1.99650        0.92020
H         -1.06560       -0.26120        0.05220
H          0.09910        0.08550       -2.14070
H          1.63540       -0.20430       -1.37580
H          0.38420       -2.18350       -2.67230
H          0.16640       -3.94700       -1.19510
H          0.21360       -3.95540        1.14570
H          0.54490       -2.20380        2.62130
H          1.76450       -0.25420        1.20270
H          0.32600        0.07630        2.12680
