20
gdb 6211	3.63868	1.44249	1.37692	1.6805	76.21	-0.2456	0.0138	0.2595	1021.9471	0.176561	-349.021157	-349.012654	-349.01171	-349.053778	32.979
C          0.08700        1.53020       -0.03130
C         -0.00230       -0.00450       -0.00020
C         -1.48510       -0.43140        0.04680
C          0.74060       -0.66810       -1.19840
C          1.52870       -1.87910       -0.63020
O          2.81930       -2.05600       -1.20370
C          1.54400       -1.60240        0.85560
C          0.74250       -0.59300        1.18580
H          1.12910        1.86570       -0.02460
H         -0.39150        1.93160       -0.93170
H         -0.41480        1.97420        0.83620
H         -2.03400       -0.02200       -0.80860
H         -1.58470       -1.52110        0.02700
H         -1.97080       -0.06880        0.95960
H          0.06370       -0.94900       -2.00990
H          1.46940        0.03400       -1.61980
H          1.01850       -2.82650       -0.84510
H          3.34550       -1.28540       -0.96200
H          2.13990       -2.19880        1.53820
H          0.57380       -0.22760        2.19500
