16
gdb 9713	3.58652	1.61318	1.55665	4.697	70.49	-0.2524	-0.0075	0.2448	894.8554	0.131971	-342.801877	-342.794225	-342.793281	-342.833925	28.54
N         -0.17700        1.38380       -0.13260
C          0.03600       -0.06590        0.06840
C         -1.33270       -0.82520        0.09590
C         -1.44530       -1.56080       -1.26250
C         -0.04100       -1.51370       -1.80870
C          0.76900       -0.74880       -1.08140
C          0.76750       -0.22560        1.33670
N          1.36400       -0.36800        2.31620
H          0.72000        1.86370       -0.14390
H         -0.57930        1.51590       -1.05790
H         -1.33290       -1.54730        0.91420
H         -2.13920       -0.11410        0.28200
H         -1.80830       -2.58710       -1.14040
H         -2.14880       -1.07080       -1.94870
H          0.24800       -2.03300       -2.71600
H          1.81500       -0.54480       -1.27900
