15
gdb 19003	5.33636	1.93528	1.70914	3.7086	64.83	-0.2387	0.0135	0.2521	763.029	0.121814	-362.647948	-362.642313	-362.641369	-362.677427	23.262
O         -0.04430       -0.01580        0.04250
C         -0.01320        1.18720       -0.03490
N         -1.08700        2.07150       -0.13980
C         -0.47380        3.38400        0.01790
C          0.79250        3.39510       -0.88500
C          1.50110        4.32660        0.12560
C          0.74650        3.30330        1.00230
C          1.16670        2.15350        0.00550
H         -1.97190        1.83270        0.28180
H         -1.16370        4.22640        0.03090
H          0.80880        3.42920       -1.97520
H          2.59170        4.27490        0.14840
H          1.15520        5.36420        0.16800
H          0.71790        3.23260        2.09120
H          2.17330        1.74160        0.01210
