16
gdb 15596	3.57955	1.75125	1.38027	1.3205	66.07	-0.248	0.0426	0.2906	905.4305	0.130203	-383.700503	-383.692695	-383.691751	-383.732959	28.982
O          0.09990        1.49530        0.45230
C          0.03520        0.14290        0.06550
C          0.71660       -0.76640        1.09030
O         -0.23870       -0.84110        2.14240
C         -1.50290       -1.06810        1.52610
C         -1.41730       -0.44750        0.08860
C         -2.46710        0.51020       -0.20730
C         -3.35620        1.28640       -0.43450
H         -0.20470        1.54730        1.36640
H          0.47450        0.08650       -0.93270
H          0.93060       -1.76330        0.67000
H          1.63700       -0.33510        1.48850
H         -1.71060       -2.14530        1.46250
H         -2.27190       -0.59810        2.14210
H         -1.45780       -1.25790       -0.64820
H         -4.13090        1.98160       -0.64410
