12
gdb 6636	6.05527	0.8181	0.72393	0.4381	64.59	-0.2695	-0.0365	0.233	1419.4336	0.082536	-377.532516	-377.523813	-377.522869	-377.567669	28.556
N          0.28420        0.77480        0.64780
C         -0.34980        0.53740       -0.53370
O         -0.09850        1.11940       -1.56980
C         -1.37810       -0.49660       -0.45000
C         -2.23680       -1.33920       -0.44400
C         -3.28100       -2.35900       -0.45090
C         -3.48460       -2.98240        0.86330
N         -3.64980       -3.47640        1.89330
H          1.00650        1.47590        0.67090
H          0.04850        0.27390        1.48680
H         -4.23220       -1.92280       -0.78190
H         -3.03590       -3.14510       -1.17660
