15
gdb 4498	3.77509	1.67725	1.17275	1.2954	64.97	-0.1677	0.0576	0.2253	980.375	0.118091	-399.828661	-399.820309	-399.819365	-399.860964	30.592
C         -0.05430        1.51010        0.06400
C         -0.01570        0.02370       -0.05220
C         -0.06360       -0.80140       -1.15160
C          0.01820       -2.15040       -0.68580
O         -0.05100       -3.33890       -1.38760
C          0.10710       -2.10260        0.68130
O          0.19110       -3.08530        1.61290
N          0.08060       -0.79070        1.06660
H          0.85250        1.91940        0.52900
H         -0.14120        1.95430       -0.93050
H         -0.90910        1.86210        0.65660
H         -0.15120       -0.47930       -2.17840
H          0.67100       -3.36360       -2.02400
H          0.16000       -3.91870        1.12750
H          0.12310       -0.48190        2.02210
