22
gdb 6805	6.22416	0.68281	0.64285	0.5302	76.53	-0.2464	0.0721	0.3186	1811.6047	0.197373	-387.339771	-387.329188	-387.328244	-387.376166	36.907
C         -0.07710        1.52340        0.00590
C         -0.01860        0.00520       -0.02720
O         -1.33610       -0.49880        0.02930
C         -1.39460       -1.90890       -0.00290
C         -2.85630       -2.33400        0.04510
C         -3.03950       -3.85470       -0.01490
C         -4.50730       -4.26580        0.10130
O         -2.43970       -4.40990       -1.18620
H          0.93130        1.94620       -0.03440
H         -0.64790        1.90390       -0.84600
H         -0.56230        1.86820        0.92350
H          0.48390       -0.34310       -0.94600
H          0.57290       -0.37690        0.82280
H         -0.91800       -2.30070       -0.91450
H         -0.84550       -2.33640        0.85500
H         -3.31390       -1.94320        0.96160
H         -3.39050       -1.86690       -0.79410
H         -2.47790       -4.31130        0.81060
H         -5.10040       -3.81910       -0.70670
H         -4.60240       -5.35290        0.03440
H         -4.93920       -3.93490        1.05130
H         -2.92830       -4.07520       -1.94700
