14
gdb 13930	3.78721	1.85974	1.54872	4.343	57.17	-0.257	-0.0123	0.2447	827.8589	0.107489	-419.674655	-419.667808	-419.666863	-419.706269	24.485
O          0.13520        0.13460       -0.47780
C          0.06880        1.24840       -0.07320
O         -1.00530        1.88210        0.50520
C         -0.27910        3.14760        0.62850
C          0.99120        2.48230        0.07110
C          2.33830        2.37030        0.81020
C          2.93380        2.88070       -0.51760
O          1.60850        3.01910       -1.09110
H         -0.70490        3.91250       -0.02400
H         -0.25020        3.48190        1.66780
H          2.44430        3.04580        1.66040
H          2.62080        1.35920        1.10430
H          3.45890        3.84060       -0.48250
H          3.53600        2.15400       -1.07160
