15
gdb 4091	3.49619	1.85649	1.25857	2.6513	66.32	-0.2314	-0.0658	0.1655	926.3203	0.118965	-399.785217	-399.777905	-399.776961	-399.816992	27.238
O         -0.03900        1.31870        0.12730
N          0.02610       -0.05840        0.06470
C         -1.11510       -0.63440        0.00750
C         -1.22360       -2.13990       -0.05680
C         -2.63800       -2.42720        0.49860
C         -3.47900       -1.22700        0.03170
C         -2.50740       -0.04250        0.02610
O         -2.80720        1.12460        0.03520
H          0.89210        1.56460        0.17920
H         -1.15920       -2.47090       -1.10220
H         -0.42270       -2.63970        0.49120
H         -3.03330       -3.38700        0.15920
H         -2.60570       -2.45320        1.59320
H         -3.82660       -1.37100       -1.00080
H         -4.35810       -1.00790        0.64100
