15
gdb 135	20.12848	2.11047	2.00594	0.9755	50.27	-0.25	0.0926	0.3426	647.6919	0.136321	-233.542445	-233.535569	-233.534624	-233.572603	22.785
C         -0.03310        1.52010       -0.01320
C          0.01930       -0.00900        0.02900
C          0.75060       -0.53310        1.25710
O          0.75400       -1.94360        1.21850
C          1.41090       -2.52030        2.31920
H          0.97270        1.95410       -0.03410
H         -0.56360        1.87080       -0.90310
H         -0.55040        1.92670        0.86290
H         -0.99470       -0.42510        0.02480
H          0.51960       -0.39780       -0.86530
H          1.78580       -0.14740        1.28090
H          0.25760       -0.17560        2.17900
H          2.46950       -2.21760        2.37110
H          0.93260       -2.24580        3.27360
H          1.36120       -3.60570        2.20060
