15
gdb 1767	4.86096	1.91812	1.67381	1.8302	63.98	-0.258	0.0289	0.2868	795.1727	0.121711	-308.471397	-308.463453	-308.462508	-308.503	28.791
C         -0.04750        1.54190       -0.10360
C         -0.02030        0.04760        0.08740
O          1.21700       -0.63420       -0.12090
C          0.65310       -0.65870        1.20750
C          1.44750        0.05580        2.28180
C          0.11250       -1.93850        1.61510
C         -0.33040       -2.99230        1.98700
H          0.80830        2.03560        0.35950
H         -0.03350        1.77650       -1.17330
H         -0.96730        1.96100        0.31800
H         -0.87630       -0.47460       -0.34450
H          1.86050        0.99400        1.90950
H          0.81530        0.26130        3.15080
H          2.27660       -0.57760        2.61020
H         -0.72370       -3.92680        2.30350
