18
gdb 13784	3.98398	1.20061	1.08906	2.0082	69.56	-0.2427	-0.014	0.2287	1144.5061	0.151793	-384.944305	-384.935171	-384.934227	-384.978603	32.216
C         -0.05530        1.50190       -0.04170
C          0.06450       -0.00250       -0.20640
O          1.12610       -0.52890       -0.47440
C         -1.20170       -0.77570       -0.02860
C         -1.35040       -2.11270       -0.74060
C         -1.23090       -2.09920        0.74320
C         -0.01500       -2.65690        1.43970
O         -0.25210       -4.04910        1.62650
H          0.92010        1.97070       -0.17520
H         -0.76290        1.90640       -0.77490
H         -0.45400        1.74580        0.94970
H         -2.09440       -0.16760        0.07290
H         -2.30780       -2.33500       -1.19740
H         -0.47770       -2.42870       -1.30200
H         -2.15000       -2.25580        1.30150
H          0.87950       -2.47190        0.83530
H          0.12180       -2.14940        2.40900
H          0.54300       -4.43300        2.00740
