14
gdb 20455	6.27816	1.41069	1.255	2.2809	63.53	-0.2556	-0.0079	0.2477	934.7158	0.109153	-378.685005	-378.678558	-378.677614	-378.716182	23.84
C          1.03940        1.03790        0.04600
N          0.30580        0.13000       -0.84010
C         -0.34830        0.61080        0.39050
C         -0.61440       -0.40650        1.42720
N         -1.52550       -0.18420        2.34720
O         -1.52020       -1.31160        3.16330
C         -0.60560       -2.17600        2.69900
C          0.01100       -1.67670        1.60090
H          1.88120        0.58900        0.56550
H          1.18600        2.07250       -0.25270
H         -0.05740        0.63090       -1.64610
H         -1.12380        1.36690        0.30870
H         -0.51280       -3.10000        3.24870
H          0.76910       -2.12790        0.98460
