19
gdb 3104	3.53355	2.13528	1.73371	0.9979	67.93	-0.2335	0.0804	0.3139	840.2918	0.16992	-310.897519	-310.888879	-310.887935	-310.930154	30.7
C          0.00460        1.19710       -0.36930
O         -0.11580        0.04600        0.44180
C         -1.32640       -0.62090        0.25880
C         -1.42660       -1.72200       -0.78150
C         -0.26890       -2.04000       -1.70390
C         -1.38190       -2.05340        0.70620
C         -0.18640       -2.71820        1.35610
H          0.97150        1.65280       -0.14190
H         -0.03550        0.95130       -1.43960
H         -0.79120        1.92610       -0.15220
H         -2.20050        0.01210        0.42490
H         -2.40450       -1.83180       -1.24470
H          0.68510       -1.72770       -1.27360
H         -0.20910       -3.11390       -1.91340
H         -0.38370       -1.52480       -2.66400
H         -2.33470       -2.35790        1.13230
H          0.75450       -2.28350        1.01580
H         -0.22600       -2.59590        2.44380
H         -0.16850       -3.79260        1.14290
