14
gdb 17513	5.02321	1.78163	1.62536	2.9561	65.61	-0.2624	0.0051	0.2674	788.3729	0.109146	-341.528093	-341.522091	-341.521147	-341.558108	23.536
N         -0.00680       -1.18980       -0.03210
C          0.00470       -0.03300       -0.02110
C          0.03090        1.40320        0.00600
C         -0.53130        2.25180       -1.17590
C          0.42700        3.33900       -0.69800
C          1.29480        2.37000        0.00710
N          0.50110        3.33400        0.80780
C         -0.41450        2.23230        1.23460
H         -0.21720        1.85180       -2.14200
H         -1.60880        2.44070       -1.17540
H          0.69430        4.26610       -1.18550
H          2.36080        2.20720        0.08670
H         -1.47550        2.49290        1.30830
H         -0.05470        1.82300        2.18010
