20
gdb 16669	2.72782	2.27028	1.6155	1.4031	73.25	-0.2241	0.0794	0.3035	893.9001	0.177751	-348.997356	-348.989558	-348.988614	-349.029083	30.714
C          0.57030        1.38420       -0.37580
C          0.04120        0.02960        0.09520
O          0.09070       -0.91510       -0.99030
C          1.00630       -1.93680       -0.70660
C          2.44910       -1.56380       -0.47320
C          1.50840       -1.81820        0.69540
C          0.77190       -0.63500        1.31220
C          1.64030        0.29340        2.16680
H          1.63550        1.35790       -0.61980
H          0.02770        1.68410       -1.27650
H          0.41200        2.15270        0.38750
H         -1.02090        0.15970        0.33940
H          0.74020       -2.87310       -1.18430
H          3.20110       -2.32170       -0.66800
H          2.76610       -0.55230       -0.69990
H          1.68210       -2.68890        1.31790
H         -0.00240       -1.05710        1.96470
H          2.47000        0.71740        1.59440
H          1.05810        1.12180        2.58350
H          2.06960       -0.26180        3.00680
