11
gdb 501	15.05755	1.57467	1.51807	2.1434	45.71	-0.2626	-0.0461	0.2165	741.954	0.082446	-322.42132	-322.414586	-322.413642	-322.453432	21.086
N         -0.06460        1.23840       -0.02260
C         -0.11680       -0.01710        0.05390
O         -0.84210       -0.71630       -0.84990
C         -0.97460       -2.11020       -0.64340
C         -2.29420       -2.45070        0.04400
O         -2.59490       -3.56830        0.36450
H          0.53580        1.61000        0.71020
H          0.38950       -0.65540        0.79200
H         -0.95820       -2.59290       -1.62640
H         -0.14510       -2.52550       -0.05610
H         -2.95640       -1.57270        0.21300
