20
gdb 13511	3.14831	1.56067	1.38791	2.5998	75.04	-0.2379	-0.0108	0.2271	1020.2333	0.175666	-349.022477	-349.013485	-349.012541	-349.056533	32.566
C         -0.73320        1.27830        0.20690
C         -0.23610       -0.16290        0.14590
C          0.79230       -0.43210       -0.99170
C          1.93990       -0.39480        0.04980
C          0.89990       -0.54790        1.18470
C          1.03800        0.33780        2.40480
C          0.24330       -0.07470        3.63140
O          1.72370        1.33730        2.39650
H          0.09650        1.99110        0.23140
H         -1.34540        1.49990       -0.67400
H         -1.35010        1.45950        1.09390
H         -1.08960       -0.84670        0.16540
H          0.66420       -1.42130       -1.43970
H          0.82520        0.30880       -1.79530
H          2.70680       -1.16930       -0.01940
H          2.42740        0.58000        0.11420
H          0.76880       -1.58890        1.49610
H          0.65560       -1.00480        4.04100
H          0.28850        0.70640        4.39130
H         -0.79950       -0.28310        3.36660
