18
gdb 17632	3.24304	1.56004	1.1314	2.9629	68.32	-0.2585	-0.0256	0.2329	1059.3321	0.151615	-384.947038	-384.938191	-384.937247	-384.981026	31.886
C         -0.16930        1.41390        0.06760
C         -0.00640       -0.08090       -0.06530
O          1.07120       -0.60260       -0.26310
C         -1.25010       -0.97670        0.04980
O         -0.88130       -2.31380       -0.15450
C         -1.94510       -0.80180        1.38950
C         -3.05740        0.20540        1.56310
C         -3.36780       -1.26890        1.54000
H          0.77590        1.90870       -0.15820
H         -0.95350        1.77820       -0.60390
H         -0.48340        1.66560        1.08560
H         -1.95140       -0.65140       -0.74100
H          0.07860       -2.28960       -0.30410
H         -1.29340       -0.96660        2.24370
H         -3.12500        0.73700        2.50570
H         -3.35320        0.79640        0.70220
H         -3.85820       -1.67210        0.66060
H         -3.64910       -1.75360        2.46770
