14
gdb 19497	3.59332	1.95451	1.80396	0.9236	62.91	-0.2343	0.0407	0.2749	777.8007	0.106759	-382.471591	-382.464701	-382.463757	-382.502774	25.697
C          0.16360       -1.23810        0.09190
C          0.12250       -0.03560        0.07950
C          0.05400        1.39100        0.05180
C          0.46430        2.28140        1.24000
O          1.24180        1.72890        2.25780
C          2.43370        1.22130        1.66830
O          2.53770        1.75420        0.35270
C          1.29870        2.29760        0.01330
H          0.20290       -2.29910        0.10500
H         -0.78160        1.80270       -0.51110
H         -0.18840        3.07400        1.58370
H          3.29750        1.54620        2.26030
H          2.38390        0.12760        1.61990
H          1.36880        3.10430       -0.70550
