14
gdb 3147	4.16533	2.76742	1.9483	2.4703	59.03	-0.233	-0.0234	0.2096	671.9779	0.113429	-324.552283	-324.545877	-324.544932	-324.582574	23.835
O          0.04180        0.05710       -0.27780
C          0.00620        1.23380       -0.06390
C         -1.08010        2.25740        0.32600
N         -0.01420        3.30980        0.40370
C          1.01080        2.34880       -0.05060
C          2.43930        2.27600        0.42480
C          2.14380        2.57920       -1.01840
H         -1.83740        2.40680       -0.45220
H         -1.58180        2.07010        1.28050
H         -0.17110        4.04580       -0.27760
H          2.77120        3.09060        1.05880
H          2.82440        1.29470        0.68110
H          2.32400        1.81230       -1.76440
H          2.29100        3.59790       -1.36330
