17
gdb 16873	3.51405	1.9781	1.54002	1.5843	67.54	-0.2316	-0.0185	0.2131	852.4864	0.143896	-363.858949	-363.852002	-363.851058	-363.890664	26.564
O          0.00090       -0.08040        0.04680
C         -0.01710        1.12740        0.06220
C         -1.28590        1.95510        0.04860
C         -1.35820        2.82940        1.31630
N         -0.15040        3.63710        1.55570
C          0.87210        3.06850        2.43170
C          1.13370        3.21020        0.97650
C          1.24700        1.97570        0.08700
H         -1.26400        2.61070       -0.83170
H         -2.15670        1.30000       -0.02300
H         -2.20980        3.51260        1.22870
H         -1.55550        2.18880        2.18460
H          1.31740        3.75080        3.15150
H          0.71220        2.05760        2.80830
H          1.74950        4.04710        0.65270
H          2.10130        1.35030        0.36080
H          1.40730        2.30410       -0.94970
