9
gdb 3931	8.94118	2.26257	1.80565	3.1057	46.89	-0.3037	-0.0944	0.2093	612.537	0.056315	-371.541704	-371.536471	-371.535526	-371.570981	17.556
O         -0.08420        0.00290        0.00050
C         -0.02550        1.19140        0.00890
N          1.20210        1.92000        0.00170
N          1.21610        3.25970        0.01120
C          2.50830        3.50390        0.00010
N          3.26120        2.36160       -0.01600
N          2.43010        1.36900       -0.01520
H         -0.86950        1.89760        0.02280
H          2.93000        4.49590        0.00310
