24
gdb 5853	2.86953	1.35045	1.19508	1.4242	81.11	-0.259	0.0675	0.3265	1195.0564	0.220411	-351.419918	-351.409218	-351.408274	-351.454588	40.213
C         -0.00370        1.63620        0.05590
C         -0.00300        0.10530       -0.01030
C          0.67360       -0.53720        1.20960
O          0.02090       -0.12340        2.41290
C          0.84130       -2.08700        1.15880
C          1.65580       -2.49420       -0.08350
C          1.61520       -2.51940        2.41960
C         -0.52420       -2.79880        1.13680
H          1.01900        2.02930        0.04410
H         -0.53730        2.06850       -0.79590
H         -0.47900        1.98560        0.97590
H         -1.03720       -0.25960       -0.08340
H          0.50070       -0.22070       -0.92590
H          1.68380       -0.11380        1.29870
H         -0.91390       -0.34010        2.32800
H          2.59250       -1.92820       -0.14700
H          1.91700       -3.55670       -0.03380
H          1.10330       -2.33770       -1.01460
H          1.10260       -2.18640        3.32450
H          1.72020       -3.60900        2.45590
H          2.62230       -2.08690        2.42780
H         -1.10630       -2.54930        0.24380
H         -0.38780       -3.88510        1.14420
H         -1.12240       -2.54610        2.01900
