18
gdb 17905	2.76187	2.29629	2.12606	2.8325	69.79	-0.2282	-0.006	0.2223	786.7764	0.157572	-347.842982	-347.836501	-347.835557	-347.873518	25.918
O          0.00090        0.04880        0.00480
C         -0.01500        1.24760        0.01070
C         -1.18570        2.24280        0.03220
C         -0.80860        3.06560        1.28610
C          0.76530        3.08670        1.26390
C          1.12880        2.27370       -0.00050
C          0.72970        3.09890       -1.24600
C         -0.84420        3.07780       -1.22380
H         -2.17960        1.79880        0.04420
H         -1.23720        4.07100        1.24790
H         -1.17980        2.58450        2.19510
H          1.16560        4.10310        1.21390
H          1.17480        2.61610        2.16190
H          2.13410        1.85650       -0.01680
H          1.13140        4.11490       -1.19760
H          1.11350        2.63710       -2.15980
H         -1.24120        2.60570       -2.12650
H         -1.27140        4.08270       -1.16360
