13
gdb 21967	7.31646	1.1262	1.05545	4.6819	55.29	-0.3004	-0.0473	0.2531	1054.2623	0.095755	-428.036303	-428.028908	-428.027963	-428.069497	24.476
O         -0.08080        1.41710        0.01050
C          0.04140        0.01110        0.00190
C         -1.39270       -0.52300        0.01220
N         -1.41730       -1.97760        0.00470
N         -1.40810       -2.71530       -1.09560
N         -1.38310       -3.94430       -0.68020
N         -1.37350       -3.95150        0.66800
N         -1.39240       -2.72700        1.09680
H          0.80010        1.80250        0.00400
H          0.55860       -0.35980       -0.89540
H          0.57510       -0.36930        0.88530
H         -1.91570       -0.18950        0.90930
H         -1.93220       -0.17970       -0.87120
