13
gdb 3119	6.13085	2.15132	1.86713	5.0232	59.16	-0.2811	0.0091	0.2902	681.0231	0.103498	-303.469034	-303.463127	-303.462183	-303.498673	22.081
N          0.04790       -1.16370        0.05930
C          0.05080       -0.00730        0.03630
C          0.03240        1.42130       -0.04870
C         -0.71790        2.24590       -1.11460
C          0.44910        3.28750       -1.08810
C          1.16070        2.43480       -0.02870
N          0.33170        2.21520        1.14050
H         -0.79230        1.73090       -2.07350
H         -1.71340        2.58620       -0.81540
H          0.98450        3.32950       -2.03840
H          0.20480        4.30700       -0.77520
H          2.22590        2.26190        0.06710
H         -0.35930        2.94840        1.29390
