12
gdb 5344	6.05518	1.60913	1.27129	0.0381	73.11	-0.2552	-0.0642	0.191	877.5856	0.085425	-340.395788	-340.389546	-340.388602	-340.426167	23.373
C          0.03290       -1.19240       -0.00370
C         -0.02290        0.00950        0.00330
C         -0.04040        1.43640        0.01100
N         -1.22660        2.06760        0.03020
C         -1.18520        3.39760        0.03650
C          0.01440        4.10730        0.02420
N          1.19720        3.48830        0.00510
C          1.16510        2.15920       -0.00130
H          0.06660       -2.25420       -0.00980
H         -2.13970        3.91760        0.05200
H          0.02260        5.19380        0.02970
H          2.11580        1.63400       -0.01680
