18
gdb 10531	2.83385	1.56318	1.15093	2.3821	64.62	-0.255	0.0667	0.3217	1077.1499	0.151807	-422.032815	-422.023858	-422.022914	-422.066643	31.759
C          0.22410        1.37430        0.20300
O          0.18100       -0.03600        0.16670
C          0.54910       -0.56690       -1.09640
C          0.55460       -2.07930       -1.01370
C         -0.55300       -2.70010       -0.16850
O         -1.79880       -2.05310       -0.34790
C          1.19810       -2.82960       -2.09860
O          1.83280       -2.69930       -0.82300
H          1.24010        1.74900        0.01000
H         -0.45630        1.82190       -0.53790
H         -0.08480        1.68460        1.20370
H         -0.17000       -0.23740       -1.86330
H          1.55070       -0.22010       -1.38990
H         -0.68710       -3.74930       -0.44740
H         -0.22830       -2.67440        0.88100
H         -1.69630       -1.18330        0.05750
H          0.83440       -3.82590       -2.34630
H          1.68680       -2.30060       -2.91720
