11
gdb 21806	6.80831	1.17394	1.08397	1.4196	53.05	-0.2786	-0.0845	0.1941	999.8042	0.070386	-430.666858	-430.659994	-430.65905	-430.699518	22.802
O         -0.21360        0.03600        0.27210
C         -0.03200        1.18930       -0.00080
C          1.36080        1.77660       -0.25560
C          1.36040        2.82790       -1.30730
N          1.95970        2.74550       -2.46140
O          1.66960        3.91200       -3.08090
N          0.86930        4.68190       -2.24400
N          0.68550        4.03250       -1.18390
H         -0.86470        1.92180       -0.06150
H          1.68800        2.22500        0.69240
H          2.04980        0.97080       -0.51130
