15
gdb 2401	5.28923	2.05475	1.81323	3.0469	57.34	-0.2401	0.0712	0.3113	725.7276	0.124559	-345.602641	-345.59584	-345.594896	-345.633382	24.974
O         -0.16060        1.42660       -0.02290
C         -0.05270        0.03490        0.03790
C         -0.54980       -0.70220        1.26320
C         -1.33820       -0.71370       -0.01650
C         -2.71570       -0.12810       -0.29890
O         -3.01810       -1.22940       -1.18920
C         -1.75000       -1.86650       -0.92340
H          0.51250        1.80570        0.55200
H          0.80190       -0.38870       -0.49260
H         -0.03460       -1.60770        1.56990
H         -0.94090       -0.09840        2.07680
H         -3.40470       -0.09250        0.55510
H         -2.72230        0.83920       -0.81370
H         -1.15440       -2.00230       -1.83600
H         -1.87560       -2.83900       -0.42770
