12
gdb 451	7.15925	3.46557	2.4869	1.8765	46.04	-0.2439	-0.0253	0.2186	504.709	0.096958	-306.386594	-306.381259	-306.380315	-306.415468	19.062
O          0.02590        0.00670        0.03650
C         -0.02000        1.20680        0.04580
C         -1.26270        2.09790        0.12560
C         -0.65900        3.46190        0.46950
O          0.63820        3.46350       -0.13410
C          1.17700        2.16440       -0.00200
H         -1.73680        2.11090       -0.86290
H         -1.98500        1.70940        0.84570
H         -1.20900        4.31300        0.06360
H         -0.57660        3.58880        1.56070
H          1.76030        2.04550        0.92740
H          1.83570        1.94950       -0.84820
