14
gdb 11097	7.96108	1.08438	1.02028	1.732	64.5	-0.2519	-0.0372	0.2146	1093.1876	0.104481	-382.485567	-382.477642	-382.476697	-382.519007	27.569
O         -0.83970        1.50400       -0.43510
C          0.10170        0.80860       -0.15510
C          1.47360        1.33940        0.21610
C          1.51640        2.66260        0.99480
C          2.04460        1.78890        2.16720
O          2.01420        0.59290        1.33050
C          3.36780        2.09430        2.67840
C          4.45990        2.36250        3.10250
H          0.03570       -0.30200       -0.13370
H          2.12580        1.27580       -0.66770
H          2.23050        3.39730        0.62720
H          0.54290        3.12720        1.15010
H          1.33660        1.68460        2.99850
H          5.42530        2.59360        3.48060
