15
gdb 10264	2.19674	2.00432	1.10239	3.3365	62.79	-0.2788	-0.0592	0.2196	1022.984	0.115786	-399.814492	-399.805429	-399.804485	-399.848983	30.986
C          0.10140        1.57330       -0.01750
C         -0.05320        0.05670        0.04750
O          0.30470       -0.57060       -1.16330
C          0.76630       -0.55220        1.24720
C          0.14620       -0.13420        2.58800
O          0.43470        0.88530        3.15220
C          0.81980       -2.00940        1.16230
N          0.84780       -3.16430        1.15520
H          1.14650        1.84390       -0.21260
H         -0.51280        1.96490       -0.83190
H         -0.19400        2.05630        0.91630
H         -1.10580       -0.20860        0.19720
H          1.17900       -0.25910       -1.42480
H          1.78310       -0.14410        1.21130
H         -0.62040       -0.83310        2.98270
