14
gdb 16060	3.74561	1.68876	1.43021	2.2268	59.46	-0.2507	-0.0327	0.218	865.0931	0.105969	-419.630489	-419.623303	-419.622359	-419.662014	26.314
O         -0.01010        1.39110       -0.02480
C         -0.04360        0.00840       -0.00780
C         -0.44990       -0.74830        1.19090
O         -1.40200        0.00040        1.93850
C         -2.37210       -0.07130        0.84190
C         -1.37230       -0.77460       -0.06050
C         -1.66690       -1.83980       -1.01810
O         -2.78580       -2.19100       -1.31540
H         -0.32030        1.68440        0.84320
H          0.73840       -0.44010       -0.61530
H          0.09530       -1.53750        1.69760
H         -3.21780       -0.70270        1.12300
H         -2.71570        0.91920        0.52990
H         -0.76940       -2.31710       -1.47390
