15
gdb 19669	4.86036	1.78659	1.66056	1.2902	69.18	-0.2507	0.0358	0.2866	803.4084	0.119918	-325.429147	-325.422827	-325.421883	-325.459445	25.102
C          0.02430       -1.26380       -0.06530
C          0.02310       -0.06290        0.00110
C          0.03850        1.38550        0.08720
C         -0.08410        2.10500        1.42800
C          1.27460        2.24540        2.02990
C          2.29450        1.62020        1.09500
C          1.37700        2.17190       -0.00930
N          0.80830        3.23040        0.98850
H          0.01920       -2.32410       -0.12490
H         -0.67980        1.82360       -0.61370
H         -0.99300        2.28800        1.98920
H          1.40750        2.54660        3.06270
H          3.23870        2.16900        1.12860
H          2.47790        0.54280        1.13010
H          1.75930        2.48840       -0.97710
