13
gdb 874	6.63826	2.09321	1.60499	0.343	55.88	-0.1749	0.0646	0.2395	725.6234	0.102908	-340.65962	-340.652573	-340.651629	-340.69137	25.469
N          0.17170        1.41000        0.08660
C         -0.01280        0.00900        0.00330
C         -1.10320       -0.81800       -0.10490
C         -0.63530       -2.17090       -0.14660
C          0.73520       -2.10970       -0.06110
O          1.71340       -3.05420       -0.05110
N          1.11260       -0.80460        0.02890
H         -0.19470        1.88770       -0.73000
H         -0.29250        1.80370        0.89830
H         -2.13300       -0.49660       -0.15020
H         -1.23040       -3.06750       -0.22860
H          1.29450       -3.91710       -0.12070
H          2.05710       -0.46750        0.10300
