17
gdb 17755	2.8924	2.73454	1.85256	1.9741	71.3	-0.2055	0.0741	0.2796	789.1869	0.141114	-326.615041	-326.607862	-326.606918	-326.645903	27.973
C         -0.01480        1.51510        0.07920
C          0.00500        0.02560       -0.00440
C          0.84210       -0.97920       -0.84350
C          0.76900       -1.99010        0.24170
C         -0.06560       -1.03020        1.11940
C         -1.09730       -1.01050        0.01160
C         -2.58350       -0.93920       -0.00490
N         -0.27630       -1.98890       -0.84190
H          0.95310        1.91340        0.40570
H         -0.25390        1.97030       -0.88940
H         -0.76890        1.85310        0.79860
H          1.51550       -0.86740       -1.68610
H          1.37560       -2.86190        0.45720
H         -0.16360       -0.88040        2.18600
H         -2.93880       -0.15960        0.67730
H         -2.95430       -0.70850       -1.01000
H         -3.02530       -1.89160        0.30860
