16
gdb 7998	3.60651	1.60687	1.18988	3.1877	60.64	-0.2523	-0.031	0.2212	971.8946	0.129755	-420.90045	-420.892661	-420.891717	-420.932633	29.233
O         -0.05490        1.40160        0.07410
C          0.01070       -0.00870       -0.01740
C         -1.41960       -0.57520       -0.08190
C         -1.21940       -1.97450       -0.67240
O         -2.36120       -2.58040       -1.20630
C         -0.13820       -1.73590       -1.72690
O         -0.06540       -2.37240       -2.74900
C          0.69280       -0.52870       -1.30800
H          0.83340        1.73810        0.22850
H          0.52400       -0.42590        0.86240
H         -1.91900       -0.57260        0.88810
H         -2.01100        0.03180       -0.77680
H         -0.75760       -2.61920        0.10230
H         -2.07470       -2.99280       -2.03510
H          0.61030        0.23010       -2.09500
H          1.75240       -0.77880       -1.20180
