18
gdb 14400	3.33231	2.54411	2.03571	1.6855	70.75	-0.2362	0.0959	0.3321	755.191	0.155507	-347.767245	-347.760949	-347.760005	-347.797142	26.333
C          0.01090        1.55820       -0.04790
C         -0.01040        0.05240       -0.06460
C          0.44960       -0.81790       -1.24760
C         -0.25460       -1.93330       -0.44870
O          0.60750       -2.07390        0.69320
C          0.37550       -0.77090        1.24820
C         -1.12230       -0.84250        1.62320
C         -1.29130       -0.86400        0.09830
H          1.04100        1.93380       -0.06560
H         -0.50780        1.97240       -0.91930
H         -0.46980        1.96390        0.84910
H         -0.09020       -0.54240       -2.15890
H          1.51550       -0.95250       -1.45150
H         -0.52700       -2.90460       -0.85770
H          1.17030       -0.48760        1.93750
H         -1.43500       -1.70160        2.22150
H         -1.50510        0.08750        2.05110
H         -2.22650       -0.70850       -0.43730
