13
gdb 5009	3.40159	2.49652	1.43995	0.2631	66.49	-0.203	-0.0382	0.1647	796.0027	0.097427	-394.815217	-394.808373	-394.807429	-394.846247	25.695
N          0.03510        1.30920       -0.08490
C         -0.02930       -0.03610       -0.00690
N         -1.16070       -0.66610        0.08810
C         -1.09150       -2.04390        0.18530
C          0.06290       -2.72210        0.18130
O          1.26750       -2.06930        0.07340
C          1.29370       -0.71380       -0.03080
N          2.36870       -0.04480       -0.14690
H          0.93540        1.73240       -0.23750
H         -0.81610        1.83830       -0.15670
H         -2.03340       -2.57290        0.26840
H          0.18850       -3.79200        0.25560
H          3.18760       -0.65270       -0.15160
