19
gdb 17708	5.87324	1.48317	1.44252	1.1736	76.	-0.2087	0.0867	0.2954	956.6325	0.165401	-327.82707	-327.81985	-327.818906	-327.857986	28.735
C         -0.15720        1.64360       -0.13500
C         -0.06540        0.12740       -0.04400
C          1.16300       -0.59210       -0.64270
C          2.06240       -0.28730        0.59630
C          0.61530       -0.51590        1.18550
C          1.04590       -1.78250        0.35470
N          2.50150       -1.71350        0.68870
C          2.87470       -2.18020        2.01980
H          0.79140        2.12330        0.12880
H         -0.41970        1.96230       -1.14990
H         -0.92640        2.03350        0.54100
H         -1.02330       -0.33620       -0.31150
H          1.50770       -0.66170       -1.67460
H          2.74320        0.55020        0.75620
H          0.30060       -0.47180        2.22860
H          0.50250       -2.72010        0.22120
H          2.89860       -3.27520        2.02350
H          3.88430       -1.82610        2.25450
H          2.20010       -1.85020        2.82810
