9
gdb 514	28.35195	1.3265	1.27733	5.7112	52.46	-0.2849	-0.0526	0.2323	831.3517	0.060584	-284.062954	-284.056563	-284.055619	-284.092997	20.574
O         -0.01810        1.45700        0.01010
C          0.00320        0.04130        0.00230
C         -1.36450       -0.46120        0.01260
C         -2.48630       -0.90590        0.02090
C         -3.75610       -1.40830        0.03030
N         -4.83460       -1.83930        0.03830
H          0.89530        1.76170        0.00370
H          0.51110       -0.35930       -0.89020
H          0.52800       -0.36880        0.88060
