12
gdb 2876	6.59578	2.08919	1.79796	1.4018	56.1	-0.2575	0.0113	0.2688	682.5869	0.090574	-323.348544	-323.342352	-323.341408	-323.379032	22.097
C         -0.15830       -1.25040       -0.17830
C         -0.03040       -0.06080       -0.07040
C          0.08000        1.38050        0.07990
C         -0.48560        1.94140        1.42920
N          0.66150        2.58570        2.08180
C          1.64230        2.43190        1.29820
O          1.48310        1.78190        0.11870
H         -0.26370       -2.30260       -0.27950
H         -0.36450        1.88090       -0.78600
H         -1.28340        2.67070        1.26120
H         -0.88420        1.14450        2.06240
H          2.65230        2.78450        1.47520
