12
gdb 542	7.43799	2.17321	1.82085	3.2052	44.01	-0.281	0.0033	0.2843	648.7955	0.095121	-343.517848	-343.511052	-343.510108	-343.54935	22.123
O         -0.57860        1.37900       -0.06270
C         -0.14180        0.03600        0.02040
C         -1.31530       -0.93650       -0.01790
O         -2.00640       -0.79780       -1.26450
C         -3.16470       -0.10570       -1.26880
O         -3.74630        0.16470       -2.27570
H         -0.78720        1.56480       -0.98380
H          0.56880       -0.21240       -0.78000
H          0.37980       -0.07490        0.97750
H         -0.97350       -1.97380        0.04800
H         -1.99860       -0.73300        0.81570
H         -3.50680        0.16460       -0.25210
