14
gdb 20587	3.36611	1.87385	1.21288	5.1757	66.77	-0.246	-0.0382	0.2078	930.8162	0.108262	-378.764015	-378.756576	-378.755632	-378.796698	25.929
C         -0.00160        1.51230        0.08380
C          0.01120        0.02510       -0.05570
C         -0.01620       -0.81420       -1.17000
C         -0.10040       -0.44120       -2.57330
O         -0.11170       -1.22830       -3.49590
C          0.05020       -2.12920       -0.63200
N          0.11250       -2.12130        0.68620
N          0.08830       -0.80110        1.00880
H          1.00780        1.90810        0.24520
H         -0.40130        1.98230       -0.81640
H         -0.62140        1.82610        0.92980
H         -0.15730        0.65450       -2.76550
H          0.04920       -3.05970       -1.17890
H          0.12220       -0.54140        1.98140
