18
gdb 10217	3.23318	1.08997	0.86948	2.3036	64.82	-0.2443	-0.0217	0.2226	1298.625	0.150778	-422.070526	-422.06058	-422.059636	-422.106143	33.545
O          0.00210        1.36910        0.11290
C          0.07920       -0.04960        0.07890
C         -1.33910       -0.57350       -0.12370
C         -1.45760       -2.09830       -0.03710
C         -2.91650       -2.55520        0.13550
O         -2.91070       -3.94710        0.41340
C         -0.84450       -2.82110       -1.22700
O         -0.24290       -2.28310       -2.12410
H          0.89730        1.71770        0.08040
H          0.72210       -0.39870       -0.73810
H          0.48760       -0.44460        1.02520
H         -1.97690       -0.11430        0.64070
H         -1.70140       -0.22680       -1.09730
H         -0.92640       -2.47460        0.85180
H         -3.37110       -1.98430        0.95890
H         -3.48920       -2.32850       -0.77770
H         -3.81860       -4.26380        0.40780
H         -1.00550       -3.91860       -1.22210
