14
gdb 18909	3.52427	2.79263	2.23514	0.4941	58.88	-0.2348	0.0656	0.3004	654.6406	0.107817	-382.447202	-382.441638	-382.440693	-382.476461	23.294
O         -0.13370        1.43930        0.01830
C         -0.04560        0.07340        0.00670
C         -1.27580       -0.87520        0.05970
C         -0.39100       -1.87000        0.77670
C         -0.46320       -1.86170       -0.74840
C          0.69930       -0.86660       -1.02360
O          1.75770       -1.14890       -0.08520
C          0.79270       -0.87730        0.95180
H          0.75900        1.80400       -0.02100
H         -2.33840       -0.69350        0.11100
H         -0.66760       -2.72110        1.38280
H         -0.79620       -2.70630       -1.33480
H          1.03080       -0.64130       -2.03610
H          1.21840       -0.66280        1.93090
