18
gdb 9780	2.99314	1.75622	1.34866	1.725	72.86	-0.2537	0.0509	0.3046	979.2953	0.150571	-347.754791	-347.745768	-347.744824	-347.788285	33.346
C         -0.40230        1.57260       -0.43570
C         -0.05310        0.10490       -0.09720
C         -1.27070       -0.63600        0.22700
C         -2.28650       -1.21190        0.51320
C          0.76870       -0.53350       -1.23320
C          2.20110       -0.05020       -1.33910
C          0.42170       -1.85100       -1.78440
O          0.07510       -0.64610       -2.47970
H          0.50240        2.17140       -0.56980
H         -0.98670        1.60850       -1.35790
H         -0.99130        2.01780        0.36920
H          0.58710        0.10000        0.79620
H         -3.18080       -1.72650        0.76440
H          2.76780       -0.31430       -0.43960
H          2.68730       -0.50860       -2.20320
H          2.25170        1.03570       -1.46280
H          1.20170       -2.44940       -2.25460
H         -0.41810       -2.40550       -1.37480
