19
gdb 8891	3.64474	1.36545	1.09715	2.1909	69.59	-0.2342	0.0629	0.2971	1143.9913	0.163706	-402.241601	-402.231502	-402.230558	-402.277872	33.62
C         -0.00700        1.61610        0.10520
C          0.03740        0.08550        0.06470
N          0.74180       -0.50950        1.19720
C          0.01140       -0.68680        2.44030
C          2.08780       -0.69830        1.07370
O          2.72910       -0.47270        0.06680
O          2.64240       -1.18460        2.21570
C          4.04710       -1.42890        2.13080
H          1.00710        2.02340        0.06820
H         -0.56230        2.00180       -0.75580
H         -0.49750        1.98460        1.01200
H         -0.97870       -0.32560        0.05640
H          0.54300       -0.24430       -0.84420
H          0.59670       -1.28920        3.13070
H         -0.21860        0.27220        2.92420
H         -0.93600       -1.19990        2.23900
H          4.34170       -1.79570        3.11500
H          4.26890       -2.17670        1.36500
H          4.58900       -0.51120        1.88850
