15
gdb 6072	4.42141	1.25149	1.23062	2.8194	58.26	-0.255	0.0159	0.2709	1035.9462	0.116767	-437.005379	-436.996403	-436.995459	-437.040341	30.547
C         -0.21020        1.28750       -0.10010
C         -0.27750       -0.20720       -0.26750
O          0.00530       -0.82610       -1.26050
O         -0.71070       -0.79610        0.87700
C         -0.94900       -2.18950        0.77730
C         -2.23640       -2.46810       -0.01520
N         -2.41160       -3.78680       -0.32930
O         -3.04150       -1.60240       -0.27510
H          0.32910        1.72480       -0.93940
H         -1.22980        1.68440       -0.07440
H          0.26960        1.55020        0.84560
H         -0.09720       -2.69500        0.31160
H         -1.06880       -2.54810        1.80300
H         -1.63310       -4.42480       -0.32890
H         -3.18760       -4.01010       -0.93290
