21
gdb 13725	4.73931	0.84827	0.77925	2.5075	75.84	-0.2209	0.078	0.2989	1496.0404	0.187449	-366.222988	-366.213391	-366.212447	-366.257898	34.287
C         -0.33210        1.39130        0.11040
N          0.01670       -0.02050        0.11790
C          1.38210       -0.37990       -0.24640
C          0.90230       -0.56140        1.15400
C          1.47220        0.25600        2.29710
C          0.50620        0.37970        3.48250
C          1.10430        1.14490        4.65530
O          0.13090        1.19700        5.68700
H          0.48170        2.07170        0.40660
H         -0.64090        1.66660       -0.90340
H         -1.18270        1.56150        0.77840
H          1.49590       -1.22630       -0.91950
H          2.09150        0.43080       -0.41750
H          0.60920       -1.56790        1.45520
H          2.39820       -0.23260        2.63090
H          1.76870        1.25150        1.94780
H         -0.41610        0.88380        3.17190
H          0.21160       -0.61760        3.83150
H          2.02330        0.64060        4.99820
H          1.39440        2.15790        4.32930
H          0.50520        1.67830        6.43040
