17
gdb 7080	2.21775	1.82841	1.14835	4.6606	66.17	-0.2466	-0.0177	0.2288	1057.5653	0.139868	-401.038147	-401.028903	-401.027958	-401.07336	31.496
C          0.00200        1.85680        0.35350
C         -0.04120        0.37050       -0.00620
C          0.83780       -0.47130        0.94600
C          0.91600       -1.93430        0.55410
O          0.61040       -2.84090        1.28540
N         -1.42390       -0.09760       -0.02040
C         -1.87010       -1.03410       -0.89870
O         -1.18930       -1.55020       -1.76180
H          1.02870        2.23120        0.31900
H         -0.60290        2.44130       -0.34480
H         -0.37870        2.02950        1.36730
H          0.32310        0.22910       -1.02840
H          1.85870       -0.06480        0.91520
H          0.47400       -0.40680        1.97680
H          1.28830       -2.12110       -0.47550
H         -2.04950        0.21880        0.70460
H         -2.94080       -1.27190       -0.74840
