16
gdb 4492	3.67844	1.67946	1.16741	1.1412	69.19	-0.164	0.0547	0.2188	1002.9606	0.130441	-379.950357	-379.941679	-379.940735	-379.983116	31.595
C         -0.04260        1.49210        0.08300
C          0.01450        0.00600       -0.04340
C          0.02180       -0.80100       -1.16160
C          0.05910       -2.16320       -0.73330
N          0.14750       -3.31740       -1.54380
C          0.08310       -2.13980        0.63920
O          0.07220       -3.16550        1.54540
N          0.06710       -0.81980        1.05340
H          0.82820        1.90000        0.61240
H         -0.06510        1.94630       -0.91040
H         -0.93740        1.83220        0.62070
H          0.00840       -0.45320       -2.18430
H         -0.40370       -3.21950       -2.38840
H         -0.19250       -4.13080       -1.04200
H          0.96960       -3.50300        1.65400
H          0.00450       -0.53530        2.01520
