13
gdb 4314	3.99157	1.88536	1.28125	6.3082	65.	-0.2183	-0.0335	0.1849	872.5345	0.097039	-398.665715	-398.659054	-398.65811	-398.696325	25.735
N          0.01790        1.39260       -0.11950
C         -0.00800        0.02590       -0.04460
C         -1.17630       -0.69390       -0.01880
C         -1.20220       -2.12430        0.00690
O         -2.15100       -2.86140        0.02940
O          0.08560       -2.75180        0.01260
C          1.20680       -2.03240       -0.00960
C          1.24240       -0.68700       -0.03830
H          0.86290        1.86790        0.15050
H         -0.83330        1.89310        0.07930
H         -2.14350       -0.20630       -0.01970
H          2.09410       -2.65650       -0.00190
H          2.19070       -0.16610       -0.06470
