16
gdb 12054	3.47219	1.86645	1.54718	0.9217	64.5	-0.256	-0.0332	0.2228	853.55	0.128603	-383.709027	-383.701493	-383.700549	-383.740822	28.07
C          0.05490        1.66700        0.38980
C         -0.01280        0.16630        0.12130
C          0.92200       -0.43760       -0.98680
C          1.61710       -1.26800        0.09510
O          2.12750       -0.35560        1.08470
C          0.75530       -0.72820        1.15260
C         -1.44640       -0.30930        0.00840
O         -1.86380       -1.10840       -0.79060
H          1.08070        1.94610        0.64040
H         -0.25530        2.24040       -0.49010
H         -0.59490        1.95370        1.22480
H          0.34680       -1.04120       -1.69100
H          1.56200        0.27110       -1.51670
H          2.11080       -2.22870        0.01400
H          0.39180       -1.15330        2.08170
H         -2.12470        0.13640        0.77310
