16
gdb 12039	3.85499	1.72194	1.54062	2.9298	68.75	-0.2657	0.0283	0.294	867.6635	0.131675	-342.761235	-342.75387	-342.752926	-342.792545	28.267
N         -0.10240        1.48620       -0.01020
C         -0.05180        0.02780        0.00440
C          0.23870       -0.61080        1.41680
C         -1.12920       -1.29780        1.37040
C         -2.21690       -0.27780        1.20830
C         -1.42170       -0.68560        0.00040
C          0.83860       -0.52000       -1.03150
N          1.54610       -0.90540       -1.86200
H          0.83520        1.86710        0.09010
H         -0.45330        1.81350       -0.90690
H          1.08200       -1.30160        1.38910
H          0.38880        0.12320        2.21340
H         -1.32530       -2.30740        1.70710
H         -3.22870       -0.66900        1.22910
H         -2.10320        0.72150        1.61620
H         -1.86580       -1.13390       -0.87900
