15
gdb 5690	4.76632	2.06828	1.47893	1.3702	67.24	-0.1808	0.0239	0.2047	812.8873	0.122659	-362.674443	-362.668387	-362.667443	-362.704517	23.816
C          0.03580        1.44050        0.06710
C          1.53220        1.88280       -0.08350
C          2.16620        0.54460        0.08060
C          1.28730       -0.47430       -0.05740
N         -0.02400       -0.01220       -0.29530
C          2.05250       -1.68160       -0.06850
C          3.35030       -1.26750        0.05650
O          3.44670        0.09340        0.12760
H         -0.27110        1.58880        1.11130
H         -0.63590        2.01850       -0.57200
H          1.72370        2.31770       -1.07480
H          1.80440        2.63630        0.66210
H         -0.74260       -0.49870        0.22790
H          1.71780       -2.70400       -0.14780
H          4.28310       -1.80200        0.13120
