14
gdb 18944	6.76972	1.50572	1.44865	1.3552	66.93	-0.2371	0.0411	0.2783	851.8965	0.106302	-345.266535	-345.260286	-345.259342	-345.296818	24.74
C         -0.06260       -1.27920       -0.08440
C         -0.05950       -0.07670       -0.05920
C         -0.04730        1.37200       -0.02090
C         -0.02030        2.07030        1.36770
C          1.51800        1.85910        1.52590
O          1.79730        3.25880        1.82580
C          0.75840        3.29930        0.80580
C          1.32870        2.09530       -0.00520
H         -0.06830       -2.34070       -0.10950
H         -0.77260        1.79170       -0.72600
H         -0.77240        2.06380        2.15530
H          2.07020        1.08480        2.05440
H          0.39110        4.26560        0.46240
H          2.10290        2.11700       -0.77100
