15
gdb 11772	4.68728	1.69811	1.55631	3.0254	65.34	-0.2629	0.018	0.2809	826.2663	0.121199	-362.653781	-362.647538	-362.646593	-362.684053	24.597
N         -0.00990       -1.14180       -0.05380
C         -0.00060        0.01410       -0.02370
C          0.01400        1.45530        0.01640
C         -0.31830        2.28220        1.30930
C          0.36060        3.38860        0.46610
C          1.33350        2.30350       -0.05550
O         -0.54730        3.57710       -0.62980
C         -0.84680        2.22150       -1.01350
H         -1.37030        2.41600        1.56650
H          0.26710        1.95700        2.16920
H          0.67450        4.35160        0.86100
H          2.07260        1.98020        0.67750
H          1.78230        2.45660       -1.03830
H         -0.53890        2.03500       -2.04740
H         -1.91720        2.01720       -0.90870
