17
gdb 3242	7.50121	1.51878	1.38594	2.2583	64.89	-0.2374	0.0691	0.3065	896.8256	0.14929	-305.831035	-305.823995	-305.823051	-305.862478	25.799
C         -0.01700        1.47280        0.36220
C          0.02420       -0.00710        0.06480
C         -1.21820       -0.72690       -0.30270
N         -0.16000       -0.51330       -1.30680
N          1.28750        2.08920        0.15260
C          1.56120        2.61990       -1.17730
C          1.30760        3.53450       -0.02910
H         -0.81020        1.94790       -0.24860
H         -0.28810        1.62600        1.41480
H          0.79050       -0.54490        0.61820
H         -1.36160       -1.75980        0.00120
H         -2.13680       -0.14980       -0.38200
H         -0.42830        0.25190       -1.92180
H          2.56730        2.46330       -1.55450
H          0.77780        2.54810       -1.93100
H          0.35630        4.06580       -0.02030
H          2.12620        4.06150        0.45280
