18
gdb 7808	3.1555	1.7222	1.20498	1.6442	67.97	-0.2383	-0.015	0.2233	993.3901	0.154805	-384.979251	-384.971579	-384.970635	-385.011202	29.402
O         -0.07790        1.44790       -0.02500
C          0.00000        0.03100        0.00920
C         -1.42830       -0.50440        0.07190
C         -1.44980       -2.03790        0.07650
C         -0.72860       -2.62340       -1.15430
C          0.67260       -2.04620       -1.29950
O          1.65490       -2.73390       -1.45140
C          0.74150       -0.52470       -1.22370
H          0.81860        1.79880       -0.03330
H          0.53680       -0.29730        0.91560
H         -1.92020       -0.10600        0.96460
H         -1.97970       -0.11800       -0.79510
H         -0.96440       -2.40990        0.98800
H         -2.48160       -2.40120        0.10520
H         -0.65450       -3.71230       -1.11040
H         -1.29380       -2.36000       -2.05970
H          0.25350       -0.10800       -2.11540
H          1.79270       -0.22160       -1.23560
