15
gdb 9607	5.22643	1.21583	1.1197	2.9132	62.42	-0.2846	-0.0069	0.2777	1042.4034	0.116834	-399.786872	-399.778416	-399.777472	-399.819973	29.901
C         -0.21050        1.62330        0.12520
C         -0.17170        0.11560        0.10730
C         -1.38060       -0.58720       -0.48760
O         -1.54550       -0.24880       -1.85070
O          1.07400       -0.47760       -0.31120
C          0.67510       -0.65350        1.04990
C          1.47870        0.00930        2.05500
N          2.10550        0.52310        2.87890
H          0.74260        2.03940        0.45540
H         -0.43510        1.98830       -0.88020
H         -1.00000        1.97460        0.79730
H         -1.27850       -1.67330       -0.34820
H         -2.29250       -0.26270        0.02430
H         -0.76410       -0.56420       -2.31920
H          0.38490       -1.66800        1.31920
