12
gdb 4631	6.68192	1.35671	1.12773	3.1887	67.55	-0.1998	-0.014	0.1858	960.2954	0.084627	-377.550726	-377.543739	-377.542794	-377.581735	26.254
O          0.04040       -0.04600        0.00300
C         -0.00020        1.16550        0.00940
N         -1.12780        1.99150        0.02920
C         -0.77900        3.32800        0.03100
C          0.57870        3.39990        0.01270
N          1.04480        2.07590        0.00010
C          1.43180        4.51570        0.00670
C          2.19010        5.45230        0.00100
H         -2.05860        1.61350        0.03990
H         -1.50470        4.12200        0.04500
H          2.00910        1.79450       -0.01490
H          2.84810        6.28560       -0.00380
