17
gdb 19439	4.05521	1.93468	1.62368	2.4824	67.35	-0.2362	0.0782	0.3144	830.0735	0.143875	-363.820964	-363.814445	-363.813501	-363.851417	26.116
C         -0.01140        1.46870        0.00860
O          1.17370        0.66840       -0.06400
C         -0.09540        0.00670        0.02140
C         -0.37490       -0.84370        1.25610
C         -0.29140       -2.28970        0.70470
N         -0.56380       -2.25050       -0.75000
C         -1.79050       -1.52800       -1.09970
C         -0.47540       -0.83460       -1.16360
H         -0.14530        2.02560        0.93570
H         -0.26070        2.01920       -0.89810
H          0.35920       -0.64370        2.03870
H         -1.36580       -0.62000        1.66360
H          0.72110       -2.68670        0.82800
H         -0.98390       -2.97890        1.19620
H         -2.26420       -1.86050       -2.01860
H         -2.48600       -1.24750       -0.31180
H          0.00430       -0.61140       -2.11150
