16
gdb 19995	3.74954	1.39769	1.13593	4.7096	70.23	-0.2697	0.0167	0.2864	1049.0618	0.13129	-342.75383	-342.746245	-342.745301	-342.786361	27.847
N         -0.18510       -1.15610        0.17790
C         -0.09860       -0.00390        0.13840
C          0.00710        1.43250        0.04920
N          0.55740        2.13050        1.23020
C          1.34090        2.12150       -0.00550
C          2.63250        1.37870        0.00160
C          3.48320        1.35370       -1.24480
C          3.93360        2.14370       -0.04420
H         -0.81250        1.89550       -0.49380
H          0.07020        3.01310        1.36050
H          1.34460        3.03260       -0.60460
H          2.61690        0.47750        0.60510
H          3.99920        0.43200       -1.48690
H          3.13150        1.90440       -2.11140
H          3.88550        3.22640       -0.10130
H          4.76210        1.76820        0.54510
