15
gdb 5388	5.00277	1.57711	1.32549	0.8764	67.56	-0.2661	-0.0474	0.2187	930.0967	0.121407	-358.902931	-358.895903	-358.894959	-358.935059	24.994
C         -0.01710        1.53700        0.01010
C         -0.01580       -0.00320        0.00250
C         -1.41670       -0.54470        0.01280
N         -1.99790       -0.75840        1.20220
C         -3.24730       -1.21200        1.14230
N         -3.94270       -1.46180        0.03190
C         -3.26610       -1.20670       -1.08880
N         -2.01780       -0.75280       -1.16760
H          1.00760        1.91830        0.00270
H         -0.53490        1.92860       -0.87050
H         -0.51890        1.91990        0.90360
H          0.49140       -0.36840       -0.89450
H          0.50780       -0.37690        0.88650
H         -3.74860       -1.39990        2.08990
H         -3.78320       -1.38990       -2.02870
