14
gdb 15706	3.42944	1.76292	1.22184	3.0909	53.66	-0.2793	-0.0056	0.2737	924.5661	0.10736	-456.840482	-456.833094	-456.83215	-456.872811	25.905
O          0.06000        1.43610        0.01540
C          0.07400        0.02790        0.08380
C         -1.33460       -0.54850       -0.00060
O         -1.89950       -0.24120       -1.27230
C         -2.69030       -1.34340       -1.63990
O         -2.14650       -2.48940       -0.98780
C         -1.37320       -2.07210        0.05210
O         -0.83550       -2.80880        0.82220
H         -0.33030        1.67550       -0.83270
H          0.68900       -0.41850       -0.71200
H          0.50930       -0.25110        1.04710
H         -1.95190       -0.13570        0.81250
H         -3.73560       -1.22190       -1.31800
H         -2.63530       -1.48690       -2.72170
