20
gdb 15677	3.05585	1.75632	1.18722	1.086	78.14	-0.2304	0.0293	0.2597	1060.8232	0.17668	-349.014428	-349.005703	-349.004759	-349.047853	31.814
C          0.05550        1.41650       -0.11410
O          0.02240        0.01820        0.05200
C         -1.28280       -0.55320        0.09660
C         -1.28070       -1.91640       -0.62510
C         -2.21930       -2.82630        0.20070
C         -2.26400       -2.12930        1.53840
C         -1.75560       -0.89650        1.50250
C         -1.65260        0.08260        2.62860
H          1.10690        1.70600       -0.19440
H         -0.46640        1.73150       -1.03140
H         -0.38950        1.95700        0.73440
H         -1.98810        0.15140       -0.37650
H         -1.56020       -1.83950       -1.67870
H         -0.25450       -2.29310       -0.58010
H         -3.22210       -2.88340       -0.24590
H         -1.85770       -3.85880        0.26850
H         -2.69770       -2.58900        2.42140
H         -2.00770       -0.34820        3.56880
H         -0.61380        0.40310        2.76900
H         -2.24000        0.98870        2.42910
