17
gdb 8122	3.9743	1.76669	1.45789	3.7944	68.48	-0.2345	0.03	0.2645	894.5069	0.143363	-363.90408	-363.896863	-363.895919	-363.935212	28.337
C          0.00330        1.54830        0.02200
C          0.03770        0.04240        0.02590
C         -0.84970       -0.78960        0.92700
C          0.65620       -0.79850        1.12080
C          1.46440       -1.89750        0.45700
C          1.15450       -1.76020       -1.04520
O          1.46340       -2.52680       -1.92880
N          0.43720       -0.59650       -1.20180
H          0.96340        1.96110       -0.30440
H         -0.77540        1.92900       -0.64970
H         -0.21400        1.92840        1.02420
H         -1.43620       -0.27210        1.67910
H         -1.32760       -1.66810        0.50440
H          1.05320       -0.31400        2.00520
H          2.54090       -1.76870        0.61170
H          1.20980       -2.90930        0.78470
H         -0.02130       -0.41600       -2.08230
