16
gdb 17979	3.99525	1.76307	1.49513	2.1321	70.07	-0.241	0.0438	0.2848	872.7658	0.130369	-346.529488	-346.52236	-346.521416	-346.561205	27.05
C          0.17450       -1.19920        0.18910
C          0.09950       -0.00240        0.10090
C          0.00400        1.43770        0.01250
C         -0.38650        2.25410        1.30020
C          0.86950        3.14860        1.12260
C          2.12920        2.59950        1.81100
O          2.41150        1.72280        0.69230
C          1.32760        2.26560       -0.07190
H          0.25080       -2.25550        0.26290
H         -0.64850        1.72060       -0.82150
H         -1.33970        2.77720        1.20550
H         -0.39870        1.66710        2.22110
H          0.73110        4.22760        1.08000
H          2.93500        3.33120        1.95100
H          1.97690        2.04690        2.74630
H          1.64270        2.61230       -1.05990
