16
gdb 13843	4.15037	1.60544	1.39682	3.1216	66.84	-0.2251	-0.0197	0.2054	928.3355	0.129144	-383.756071	-383.748168	-383.747224	-383.789123	27.976
C          0.11880        1.42630       -0.04100
C         -0.00300       -0.08620       -0.02150
O          0.94810       -0.82280        0.04170
C         -1.44600       -0.64400       -0.07410
O         -1.46410       -1.98160       -0.52760
C         -1.76310       -2.86440        0.55260
C         -2.19090       -1.96360        1.67720
C         -2.03410       -0.69430        1.32010
H          1.14140        1.72150        0.19660
H         -0.14200        1.79970       -1.03860
H         -0.57950        1.89120        0.66360
H         -2.03920       -0.01940       -0.76070
H         -2.55270       -3.56080        0.23610
H         -0.87790       -3.46230        0.81750
H         -2.55990       -2.33000        2.62650
H         -2.24260        0.18580        1.91370
