17
gdb 9489	2.96804	1.68511	1.52089	3.7435	68.98	-0.2473	0.0253	0.2726	927.0374	0.142899	-360.026896	-360.018595	-360.017651	-360.059276	30.795
C         -0.56240        1.31680        0.03540
C          0.19280        0.00670       -0.05310
N          1.55560        0.05640       -0.63900
C          2.01860       -1.00730        0.27650
C          0.84350       -0.61540        1.23900
N          1.13340        0.38620        2.25530
C          0.12210       -1.73210        1.84250
N         -0.43360       -2.63530        2.30210
H          0.02260        2.08670        0.54210
H         -0.80120        1.67570       -0.97160
H         -1.50190        1.18160        0.57960
H         -0.44120       -0.75990       -0.52290
H          1.61440       -0.16170       -1.62790
H          1.91420       -2.03020       -0.10950
H          3.02840       -0.86950        0.67760
H          1.65810       -0.03250        3.01770
H          1.72170        1.10530        1.84410
