10
gdb 21909	5.87716	1.69768	1.31719	2.4159	51.9	-0.275	-0.1133	0.1616	811.8209	0.060622	-450.588878	-450.582814	-450.58187	-450.619329	22.169
O         -0.11080        1.34630       -0.21850
C          0.02820        0.03410       -0.00670
N          1.22140       -0.45710        0.04850
O          1.30860       -1.83660        0.27280
C          0.19590       -2.61750        0.42440
O          0.30400       -3.79780        0.61560
C         -1.08590       -1.88820        0.33210
N         -1.18030       -0.62710        0.12750
H          0.77500        1.72830       -0.29990
H         -1.98790       -2.48550        0.44920
