17
gdb 20844	5.25137	1.26094	1.09132	3.1397	71.55	-0.2025	0.0413	0.2438	1108.1676	0.143888	-360.070213	-360.061921	-360.060977	-360.103337	30.238
C         -0.00310        1.43470       -0.46390
C         -0.10110        0.11350        0.31690
C         -1.43150       -0.56300        0.17200
N         -2.27270       -0.61700        1.19820
N         -3.36530       -1.26390        0.70520
C         -3.23010       -1.61480       -0.59760
N         -4.21640       -2.35380       -1.25760
C         -1.98120       -1.17220       -0.98710
H          0.98150        1.89460       -0.33190
H         -0.15890        1.27550       -1.53580
H         -0.76080        2.14520       -0.11960
H          0.69300       -0.56450       -0.02050
H          0.06800        0.29840        1.38200
H         -4.11590       -1.50690        1.32820
H         -5.14410       -1.95640       -1.16450
H         -4.00320       -2.46270       -2.24000
H         -1.53900       -1.26400       -1.96640
