10
gdb 3903	5.97394	2.93196	1.96671	1.6216	50.96	-0.2549	-0.088	0.1669	579.5407	0.069709	-355.517745	-355.512683	-355.511739	-355.546612	18.485
O         -0.01920       -0.07660        0.00350
C          0.00420        1.13760        0.00910
N         -1.15430        1.91240        0.02830
N         -1.22850        3.25080        0.03610
C         -0.08750        3.87350        0.02430
N          1.15630        3.28950        0.00510
C          1.19780        1.99610       -0.00200
H         -2.04240        1.42570        0.03750
H         -0.12630        4.95550        0.03020
H          2.16220        1.49190       -0.01710
