19
gdb 20086	3.36101	1.4664	1.22578	1.6432	72.45	-0.2193	0.0774	0.2966	1058.1974	0.163863	-365.00151	-364.992722	-364.991778	-365.035176	31.628
C         -0.08430        1.53920        0.66720
C          0.07840        0.08880        0.26400
C          0.46930       -0.34630       -1.11700
C          0.75250        0.62350       -2.22010
C          1.11730        0.14460       -3.56210
O         -0.20110        0.61790       -3.28990
N          1.37190       -0.55110        0.01880
C          2.61570        0.19920        0.12650
H          0.55600        2.22560        0.11040
H         -1.12090        1.85230        0.50510
H          0.13760        1.66810        1.73220
H         -0.60960       -0.56990        0.79470
H          0.03570       -1.26890       -1.50410
H          1.08640        1.62060       -1.94170
H          1.71680        0.77430       -4.21830
H          1.20070       -0.92680       -3.74130
H          2.56730        1.26070       -0.15360
H          2.96620        0.14390        1.16220
H          3.36930       -0.28020       -0.50640
