15
gdb 4576	5.82423	1.54504	1.23176	3.1912	72.28	-0.2195	-0.0296	0.19	954.7339	0.120519	-358.904605	-358.897157	-358.896213	-358.937079	27.305
C          0.00290        1.49650        0.01410
C          0.00610       -0.00770        0.00950
N          0.10820       -0.62030       -1.17840
C          0.10450       -1.94710       -1.18320
C         -8.13690       -2.71380       -0.01580
N         -0.06810       -4.10330       -0.03720
C         -0.09300       -1.97050        1.16420
N         -0.09100       -0.64040        1.18420
H          0.90530        1.88450       -0.46910
H         -0.85140        1.88040       -0.55340
H         -0.04960        1.86980        1.03720
H          0.18830       -2.43690       -2.15380
H          0.35990       -4.53880       -0.84180
H          0.21320       -4.55710        0.82020
H         -0.17160       -2.47600        2.12690
