17
gdb 8166	2.89544	2.57265	1.72696	1.9328	67.57	-0.217	-0.0115	0.2055	800.7733	0.143336	-363.849141	-363.842209	-363.841265	-363.880005	27.127
C         -0.05330        1.55770        0.02670
C          0.03580        0.05520        0.02750
C          0.96200       -0.81690       -0.88330
N          0.73570       -1.93830        0.11220
C          0.66960       -0.83320        1.14860
C         -0.71780       -2.18740       -0.09890
C         -1.25420       -0.73880       -0.16450
O         -2.37440       -0.33430       -0.32250
H          0.92770        2.02060        0.17130
H         -0.46880        1.91840       -0.91970
H         -0.71910        1.90450        0.82360
H          0.65420       -1.03350       -1.91060
H          2.00650       -0.49580       -0.86080
H          1.67730       -0.51410        1.42650
H          0.08520       -1.06520        2.04390
H         -0.89630       -2.73910       -1.02630
H         -1.14920       -2.75320        0.73180
