17
gdb 20293	5.30034	1.53272	1.43398	2.0923	68.26	-0.2313	0.0766	0.3079	905.7693	0.14257	-363.745157	-363.73841	-363.737465	-363.776519	26.155
C          0.02570        1.40120       -0.28670
C          1.36040        0.84390        0.05530
N          0.18480       -0.01940        0.01810
C         -0.28750       -0.55300        1.27300
C         -1.30260        0.15460        2.24170
C         -2.44580       -0.08570        1.22300
C         -1.60440       -1.37560        1.34490
O         -1.57360       -1.18000        2.81370
H         -0.44640        2.03980        0.45690
H         -0.23180        1.63700       -1.31570
H          2.10240        0.66290       -0.71760
H          1.77110        1.10720        1.02900
H          0.52550       -1.04700        1.80980
H         -1.16020        0.97540        2.94620
H         -3.44110       -0.14560        1.66550
H         -2.43240        0.45290        0.27420
H         -1.81110       -2.37950        0.97370
