14
gdb 19380	4.53282	1.67406	1.50219	2.7885	56.46	-0.256	0.0354	0.2913	839.6755	0.105355	-419.565732	-419.558859	-419.557914	-419.597053	25.927
O          0.06250        1.40530        0.15000
C          0.07340       -0.00340       -0.01340
C         -1.30650       -0.55260       -0.16370
O         -2.11710       -0.71480        1.00870
C         -1.93290       -1.83870        0.14970
C         -2.90200       -1.66920       -1.09230
O         -3.63070       -0.45780       -0.92160
C         -2.28950       -0.37690       -1.39660
H         -0.46600        1.59880        0.93240
H          0.65580       -0.19780       -0.92060
H          0.57070       -0.51440        0.82420
H         -1.53450       -2.75490        0.56840
H         -3.31380       -2.44470       -1.72530
H         -2.09340        0.13210       -2.33170
