18
gdb 14337	4.44644	1.66448	1.43338	1.6529	73.78	-0.2335	0.0242	0.2577	927.4177	0.155089	-347.806023	-347.798931	-347.797987	-347.837224	27.4
C         -0.09790        1.51870        0.01840
C         -0.00710        0.02640       -0.02980
C         -0.13100       -0.75450       -1.10850
C          0.04230       -2.21460       -0.80490
C          1.47420       -2.77490       -0.99010
O          1.77810       -2.55760        0.40330
C          0.40340       -2.22040        0.70620
C          0.23900       -0.78810        1.22730
H          0.83600        1.95840        0.39100
H         -0.30540        1.94540       -0.96670
H         -0.88890        1.84490        0.70600
H         -0.31520       -0.38580       -2.11270
H         -0.76940       -2.85280       -1.16300
H          1.51490       -3.84090       -1.25300
H          2.14270       -2.21230       -1.65210
H         -0.05820       -2.98270        1.34350
H          1.14590       -0.47700        1.76090
H         -0.59520       -0.69280        1.93670
