14
gdb 13302	5.83436	1.29353	1.13252	3.0099	61.76	-0.2677	0.0058	0.2735	994.134	0.108718	-378.748832	-378.741723	-378.740778	-378.781166	24.895
N         -0.05160       -1.15440        0.09520
C         -0.00890       -0.00070        0.12900
C          0.04660        1.45910        0.15340
C          1.45260        2.01500       -0.11700
C          1.53090        3.56410       -0.02530
N          2.36270        3.83300        1.15890
C          2.74350        2.70010        1.57500
O          2.34740        1.57210        0.93090
H         -0.64240        1.85100       -0.60390
H         -0.30360        1.81800        1.12770
H          1.83470        1.61930       -1.06080
H          1.99310        4.00970       -0.91170
H          0.54400        4.02490        0.09430
H          3.38550        2.52230        2.43010
