15
gdb 10288	2.60261	1.79706	1.15005	2.7748	62.82	-0.2696	-0.0377	0.2319	1024.798	0.115137	-399.808909	-399.799681	-399.798737	-399.843671	30.714
C         -0.26050        1.35370        0.08210
O          0.08060       -0.01740       -0.05180
C          0.84520       -0.51930        0.99540
C          0.08790       -0.59750        2.26370
N         -0.51580       -0.65720        3.24760
C          1.40220       -1.92250        0.59190
C          2.11690       -2.68430        1.68450
O          1.27510       -2.31380       -0.53380
H          0.63890        1.98260        0.15470
H         -0.81500        1.62230       -0.81820
H         -0.89150        1.53170        0.96290
H          1.73180        0.11360        1.19130
H          1.38680       -3.06180        2.40870
H          2.65750       -3.52280        1.24490
H          2.80690       -2.03720        2.23620
