20
gdb 15634	3.06355	1.6663	1.2176	1.2721	77.49	-0.2295	0.0281	0.2575	1061.4645	0.177344	-349.023997	-349.01536	-349.014416	-349.05727	32.123
C          0.02440        1.47390        0.32010
C         -0.03910        0.00170       -0.12210
C         -1.42600       -0.56740       -0.10580
C         -2.12380       -1.06390       -1.12900
C         -3.50170       -1.53580       -0.73150
C         -3.41870       -1.55200        0.81410
C         -2.24950       -0.60360        1.16790
O         -1.43990       -1.05200        2.25260
H          1.05240        1.84640        0.27700
H         -0.59310        2.10870       -0.32380
H         -0.32750        1.58740        1.34980
H          0.38420       -0.10420       -1.12720
H          0.59000       -0.59020        0.55430
H         -1.76640       -1.10380       -2.15330
H         -4.27400       -0.83880       -1.08650
H         -3.75880       -2.51450       -1.15270
H         -4.35950       -1.28050        1.30180
H         -3.13310       -2.55040        1.16140
H         -2.62330        0.41020        1.39440
H         -1.94970       -0.95560        3.06260
