12
gdb 21508	5.28769	1.7641	1.32278	1.1534	56.96	-0.2737	-0.043	0.2307	835.586	0.085755	-410.877814	-410.871173	-410.870228	-410.908923	23.941
N         -0.10260        1.31900        0.00910
C          0.09440       -0.01330        0.00210
O          1.14650       -0.60410       -0.00930
N         -1.14520       -0.74370        0.01040
C         -1.29560       -2.09340        0.00720
C         -2.65210       -2.27490        0.01830
N         -3.26310       -1.04940        0.02740
N         -2.35620       -0.12670        0.02250
H          0.70440        1.91720        0.00270
H         -1.03710        1.69550        0.01740
H         -0.44640       -2.75340       -0.00220
H         -3.22280       -3.18880        0.02030
