9
gdb 23683	4.21676	1.96615	1.34092	1.1925	45.68	-0.3091	-0.0704	0.2387	762.0786	0.049929	-478.83006	-478.824692	-478.823748	-478.859952	19.19
F          0.01470        0.09210        0.00340
C         -0.01130        1.39900        0.01060
N         -1.20730        1.96370        0.02990
C         -1.15500        3.29580        0.03610
N         -0.04860        4.03950        0.02480
C          1.05980        3.31790        0.00580
F          2.18580        3.98170       -0.00620
N          1.16650        1.99990       -0.00250
H         -2.10350        3.82530        0.05190
