18
gdb 1515	7.79138	1.16349	1.05919	3.3426	66.05	-0.2413	0.0381	0.2794	1147.6309	0.158899	-327.020807	-327.01174	-327.010796	-327.055427	30.574
C          0.06310        1.56810        0.02070
C          0.24770        0.04990        0.05630
C          0.44400       -0.55940       -1.33620
C          0.45990       -2.08610       -1.29910
O         -0.26580       -2.72610       -0.55720
N          1.33110       -2.67400       -2.17170
C          1.44670       -4.11180       -2.31270
H          0.93190        2.06960       -0.42100
H         -0.81490        1.84720       -0.57280
H         -0.07510        1.97220        1.02830
H          1.10920       -0.20540        0.68560
H         -0.61830       -0.43440        0.51660
H         -0.39220       -0.26300       -1.98450
H          1.35460       -0.16840       -1.80730
H          1.90090       -2.08300       -2.75310
H          0.75760       -4.56150       -1.59690
H          1.17740       -4.44020       -3.32330
H          2.46440       -4.45430       -2.09390
