18
gdb 14764	10.79508	0.59532	0.57227	2.5929	71.94	-0.2555	0.0333	0.2888	1861.8274	0.150355	-384.881781	-384.87184	-384.870896	-384.917654	33.637
O         -0.10550        1.42650        0.01040
C          0.01090        0.01270        0.00210
C         -1.39810       -0.56620        0.01220
C         -1.40480       -2.08740        0.00430
O         -2.74890       -2.52570        0.01460
C         -2.85540       -3.93440        0.00820
C         -4.25750       -4.33080        0.01910
C         -5.40440       -4.68610        0.02810
H          0.77990        1.80130        0.00430
H          0.55400       -0.33700       -0.89170
H          0.57050       -0.34620        0.88190
H         -1.92860       -0.20590        0.89960
H         -1.94500       -0.19660       -0.86130
H         -0.88450       -2.47510       -0.88950
H         -0.86790       -2.48440        0.88400
H         -2.35860       -4.35630       -0.88290
H         -2.34210       -4.36550        0.88560
H         -6.42120       -4.99220        0.03690
