14
gdb 8807	5.25168	1.16364	0.96402	2.4291	55.89	-0.2532	-0.0712	0.182	1147.0101	0.103735	-456.837318	-456.82823	-456.827285	-456.872014	29.82
C         -0.01270        1.37330        0.00640
O          0.02560       -0.06160       -0.03550
C          0.63180       -0.58490       -1.09760
O          1.13560        0.04240       -1.99850
C          0.62560       -2.12950       -1.05960
O          0.12330       -2.74640       -0.16180
C          1.31210       -2.75250       -2.26110
O          1.25910       -4.14820       -2.14370
H          1.00100        1.78130        0.01890
H         -0.54110        1.76610       -0.86570
H         -0.54140        1.62690        0.92420
H          0.81040       -2.36810       -3.16470
H          2.33950       -2.35340       -2.29830
H          1.69580       -4.52680       -2.91200
