20
gdb 14524	3.97827	1.39095	1.35588	1.8517	74.21	-0.2418	0.0789	0.3207	1022.1831	0.177011	-348.969178	-348.960852	-348.959908	-349.003235	30.798
C          0.01620        1.53390        0.16770
C          0.02100        0.01980        0.04560
C          1.08870       -0.60020       -0.82950
C          1.18240       -0.72100        0.67240
C         -1.32140       -0.68320        0.07280
C         -2.32220       -0.34070        1.20550
O         -3.29600        0.15090        0.26350
C         -2.45110       -0.17410       -0.85810
H          1.03810        1.92340        0.13530
H         -0.53990        2.00790       -0.64810
H         -0.43030        1.86650        1.11080
H          0.83790       -1.48960       -1.39820
H          1.78310        0.06390       -1.33340
H          1.94010       -0.13870        1.18590
H          0.99470       -1.69210        1.11870
H         -1.15620       -1.75950       -0.02440
H         -2.69890       -1.20050        1.77410
H         -2.00580        0.43500        1.91350
H         -2.21700        0.70790       -1.46670
H         -2.90390       -0.93570       -1.50590
