17
gdb 4774	5.84834	1.21695	1.08105	1.4957	72.19	-0.1873	0.0318	0.219	1120.7969	0.142881	-363.893707	-363.88558	-363.884636	-363.926441	30.085
C          0.14700        1.56060       -0.13540
C         -0.06690        0.05290        0.08420
C          0.57000       -0.46050        1.33010
C          0.07290       -1.01690        2.46920
C          1.19770       -1.29780        3.31970
N          1.13710       -1.94890        4.56130
C          2.29610       -0.88490        2.62730
O          1.92320       -0.37720        1.40750
H          1.21360        1.79560       -0.18480
H         -0.31900        1.88650       -1.07030
H         -0.28750        2.14020        0.68480
H         -1.13680       -0.17310        0.13500
H          0.32860       -0.49640       -0.78030
H         -0.96600       -1.21740        2.68320
H          0.33630       -1.66150        5.10950
H          1.97600       -1.82060        5.11250
H          3.35250       -0.89070        2.83570
