12
gdb 4747	7.15073	1.34121	1.13068	4.4168	63.31	-0.2243	-0.0723	0.152	962.2454	0.08464	-414.694677	-414.687839	-414.686894	-414.72576	24.716
N          0.02590        1.38240        0.15020
C         -0.02970        0.00330        0.04640
C         -1.10720       -0.84550        0.01180
O         -0.63330       -2.12260       -0.02110
C          0.70640       -1.99180       -0.00310
C          1.56300       -3.18140       -0.03050
O          1.15920       -4.31890       -0.07350
N          1.11890       -0.75060        0.03540
H          0.91640        1.75360       -0.15070
H         -0.74770        1.87380       -0.27310
H         -2.17570       -0.72050        0.00920
H          2.63920       -2.91880       -0.00760
