17
gdb 7292	4.40251	1.09725	1.03331	3.4474	70.56	-0.2457	0.0261	0.2717	1168.5949	0.139621	-363.871177	-363.861533	-363.860589	-363.906233	33.913
C         -0.07210        1.66370        0.20340
C         -0.06040        0.13710        0.01340
C          0.77950       -0.57500        1.09990
C          2.17960       -0.17290        1.09890
C          3.33410        0.16290        1.07690
C         -1.49810       -0.38630        0.08510
N         -2.10720       -0.57910       -1.12000
O         -2.06370       -0.59300        1.14250
H          0.94880        2.05350        0.20190
H         -0.63330        2.15730       -0.59580
H         -0.54260        1.92070        1.15730
H          0.37010       -0.09600       -0.96780
H          0.31810       -0.37400        2.07280
H          0.71270       -1.66030        0.95550
H          4.35580        0.45160        1.07490
H         -1.64970       -0.38590       -1.99290
H         -3.07520       -0.85690       -1.12840
