12
gdb 9160	8.06586	0.78033	0.71466	4.307	75.98	-0.2645	-0.0789	0.1856	1450.4435	0.080169	-381.282937	-381.274299	-381.273355	-381.31677	29.291
O          0.04930        1.39110        0.00920
C         -0.02110       -0.00640        0.00220
C         -1.48080       -0.44090        0.01380
O         -2.41280        0.32690        0.02680
C         -1.66570       -1.88200        0.00770
C         -1.85040       -3.08090        0.00320
C         -2.04620       -4.42430       -0.00220
C         -2.22090       -5.61920       -0.00730
H          0.97690        1.64440        0.00150
H          0.44670       -0.46210       -0.88820
H          0.46350       -0.47180        0.87860
H         -2.37510       -6.67030       -0.01160
