11
gdb 4257	3.99676	2.03341	1.34773	2.5168	54.38	-0.282	-0.0569	0.2251	805.6819	0.07417	-434.626169	-434.620149	-434.619205	-434.656582	22.212
O          0.03090       -0.06240        0.00310
C         -0.01170        1.13130        0.00860
N         -1.15860        1.88970        0.02870
C         -1.27810        3.29310        0.03720
O         -2.36530        3.82150        0.05580
C          0.02120        3.95770        0.02320
C          1.13580        3.21990        0.00420
O          1.16200        1.86520       -0.00320
H         -2.02450        1.36650        0.03840
H          0.05530        5.03710        0.02860
H          2.14100        3.62350       -0.00720
