13
gdb 2518	3.19928	2.30547	1.42303	1.4184	57.62	-0.25	-0.0446	0.2053	821.0943	0.09767	-344.402806	-344.394688	-344.393744	-344.435829	27.053
C         -0.15910        1.36440        0.23580
O         -0.34430       -0.01330       -0.04790
C          0.54950       -0.50230       -1.03240
C          1.94900       -0.68890       -0.40700
O          2.96090       -0.23580       -0.86540
C          0.08520       -1.79870       -1.50870
C         -0.22880       -2.89410       -1.88910
H          0.84410        1.58030        0.62940
H         -0.32070        1.98190       -0.65960
H         -0.90060        1.62820        0.99210
H          0.65010        0.20320       -1.87140
H          1.91920       -1.27380        0.53780
H         -0.52680       -3.85320       -2.23580
