20
gdb 9372	5.0625	0.77494	0.69722	1.2317	77.8	-0.2586	0.0569	0.3156	1597.6632	0.174259	-348.970958	-348.960789	-348.959845	-349.006497	35.967
C         -0.08480        1.57910        0.12300
C          0.03000        0.04470        0.01540
C          0.73100       -0.42020       -1.28530
C         -0.02910       -0.06470       -2.56620
C          0.62950       -0.64430       -3.81190
O         -0.13610       -0.24150       -4.93750
C          0.72340       -0.49920        1.18300
C          1.31450       -0.93700        2.13430
H          0.90700        2.04120        0.09290
H         -0.68140        1.98550       -0.69770
H         -0.56100        1.86360        1.06460
H         -0.98840       -0.37010        0.00780
H          1.74000        0.01100       -1.31150
H          0.86370       -1.50710       -1.22940
H         -1.05880       -0.44050       -2.51250
H         -0.09780        1.02090       -2.69500
H          1.66830       -0.28170       -3.88540
H          0.67480       -1.74290       -3.73200
H          0.27270       -0.60880       -5.72650
H          1.82520       -1.32880        2.97870
