14
gdb 10593	3.35827	1.70838	1.35665	2.2258	66.48	-0.2413	-0.0414	0.1999	904.6811	0.104364	-382.501034	-382.493208	-382.492264	-382.532788	29.42
O         -0.13680        1.37430        0.08050
C         -0.05550        0.01110        0.08530
C         -0.41630       -0.82040        1.24300
C         -1.38760       -0.88090        0.03710
C         -2.62290       -0.08440        0.15940
O         -2.70500        0.93130        0.82770
C         -1.41600       -2.04710       -0.78810
C         -1.44110       -3.02480       -1.48930
H         -0.93020        1.62550        0.58620
H          0.70840       -0.34680       -0.59580
H          0.13640       -1.73290        1.43270
H         -0.81890       -0.31570        2.11560
H         -3.48420       -0.45010       -0.43090
H         -1.46440       -3.88750       -2.10820
