18
gdb 18407	3.21273	2.10705	1.42868	1.7208	67.	-0.2431	0.0834	0.3265	882.9739	0.155714	-384.922021	-384.915116	-384.914172	-384.952945	27.176
C         -0.02750        1.38160        0.04080
C          1.31260        2.12780       -0.04780
C          1.90360        2.12170       -1.44710
O          3.25000        1.66430       -1.61490
C          2.19230        0.86840       -2.16060
C          1.91550       -0.48910       -1.53760
C          0.44590       -0.67320       -1.12900
O          0.10480       -0.02690        0.08300
H         -0.53390        1.64920        0.97390
H         -0.68620        1.68070       -0.79230
H          1.16760        3.16290        0.28330
H          2.01830        1.66280        0.64730
H          1.66270        2.99460       -2.05640
H          2.14600        0.89670       -3.25080
H          2.19100       -1.27940       -2.24580
H          2.54360       -0.61740       -0.65090
H         -0.22070       -0.34000       -1.94280
H          0.24570       -1.73510       -0.95280
