12
gdb 736	8.97305	3.51644	2.56659	1.9119	51.26	-0.2393	0.0296	0.2689	500.7111	0.098676	-265.440996	-265.435575	-265.43463	-265.469779	19.456
C         -0.02170        1.47890       -0.03010
C          0.00190       -0.01540        0.04820
N         -0.07240       -0.75280       -1.05910
N         -0.02440       -2.02850       -0.62450
C          0.07790       -2.12700        0.72220
C          0.09840       -0.83590        1.20050
H          0.89090        1.91660        0.38930
H         -0.10750        1.79500       -1.07180
H         -0.86700        1.89610        0.52810
H         -0.06620       -2.77390       -1.29760
H          0.12670       -3.08280        1.22000
H          0.17200       -0.52550        2.23040
