17
gdb 19698	4.711	1.56911	1.46236	2.8887	66.71	-0.2404	0.0696	0.31	897.9807	0.143769	-363.790703	-363.783792	-363.782848	-363.82204	26.48
O          0.29830        0.63150       -0.93600
C         -0.07780        0.40360        0.41610
C         -1.42000       -0.30430        0.39060
C         -1.54830       -1.76400       -0.00770
C         -1.40750       -2.61890        1.21240
C         -1.18430       -1.73070        2.42220
C         -2.12960       -0.76260        1.68340
N         -2.73280       -1.97720        0.89680
H          1.16950        1.03840       -0.94250
H          0.67360       -0.20850        0.93600
H         -0.17340        1.35190        0.97160
H         -2.11940        0.28650       -0.21030
H         -1.52650       -2.18410       -1.00640
H         -1.27830       -3.69320        1.14190
H         -1.67750       -2.15240        3.30180
H         -0.17470       -1.40290        2.69000
H         -2.79330       -0.09370        2.22830
