16
gdb 16858	4.14082	1.97045	1.47443	3.4313	66.25	-0.2271	0.0307	0.2578	843.9987	0.132955	-379.902732	-379.896109	-379.895165	-379.933487	26.094
N         -0.11300        1.29050        0.48940
C         -0.05230        0.11820        0.02240
C         -1.24900       -0.80840        0.03810
N         -1.23450       -1.62020       -1.17730
C         -0.08080       -2.47690       -1.20260
C          0.97450       -2.20820       -2.25980
C          1.17930       -1.74780       -0.84350
O          1.09050       -0.37110       -0.55280
H          0.79700        1.74950        0.40830
H         -1.22210       -1.40760        0.96660
H         -2.14230       -0.18380        0.07110
H         -2.09630       -2.13360       -1.30150
H         -0.18770       -3.49440       -0.82500
H          1.58600       -3.02860       -2.61870
H          0.72420       -1.44500       -2.98680
H          1.92980       -2.23930       -0.23260
