13
gdb 15459	3.82605	1.83887	1.25166	4.1605	70.03	-0.2477	-0.0467	0.201	901.6501	0.095607	-361.479503	-361.472306	-361.471361	-361.511031	26.483
O         -0.00630       -0.04290        0.00350
C          0.00560        1.16570        0.00990
N         -1.08500        2.00400        0.02790
C         -0.74410        3.40530        0.03110
C          0.75810        3.36610        0.01200
C          1.20000        2.09810       -0.00040
C          2.52880        1.62410       -0.01960
C          3.65450        1.19840       -0.03610
H         -2.02360        1.64380        0.03780
H         -1.14330        3.93730       -0.84560
H         -1.12110        3.92790        0.92300
H          1.36480        4.26120        0.00900
H          4.64520        0.81650       -0.05070
