20
gdb 13724	6.16885	0.81605	0.76831	2.4266	73.42	-0.2526	0.0865	0.3391	1544.5653	0.174344	-386.115427	-386.105795	-386.104851	-386.150751	33.397
C         -0.14920        1.54380       -0.24920
C         -0.02470        0.05160        0.00620
O         -1.32240       -0.50370        0.07160
C         -1.32220       -1.89170        0.31970
C         -2.75400       -2.35660        0.36230
O         -3.34890       -2.80800       -0.85870
C         -3.17120       -3.75780        0.19680
C         -2.23680       -4.91650       -0.05080
H          0.84140        2.00480       -0.30640
H         -0.67420        1.72850       -1.19050
H         -0.71100        2.02520        0.55620
H          0.55550       -0.43210       -0.79810
H          0.51730       -0.13690        0.94940
H         -0.76950       -2.42910       -0.46490
H         -0.83160       -2.10960        1.28590
H         -3.39500       -1.70000        0.95300
H         -4.10660       -4.04010        0.68580
H         -1.31400       -4.60080       -0.54080
H         -1.98150       -5.40860        0.89420
H         -2.72260       -5.65960       -0.69190
