16
gdb 16005	3.98638	1.95378	1.57132	2.1685	64.89	-0.2465	0.0246	0.2711	825.3714	0.133321	-379.901813	-379.895147	-379.894202	-379.932665	25.493
C          0.03790        1.51090       -0.00230
N          1.27030        0.70160        0.05080
C         -0.04280        0.03340        0.00850
C         -0.39860       -0.71930        1.26480
O          0.09630       -2.06990        1.21120
C          0.13550       -2.64640       -0.01180
N         -0.11090       -2.15510       -1.15140
C         -0.46590       -0.73930       -1.22420
H         -0.17450        2.08270        0.89760
H         -0.21720        2.02110       -0.92850
H          1.70620        0.67170       -0.86840
H          0.06000       -0.26250        2.14320
H         -1.48730       -0.75830        1.40210
H          0.43840       -3.68740        0.08660
H         -1.55190       -0.65740       -1.37490
H         -0.00170       -0.31070       -2.12140
