13
gdb 937	5.89436	2.6957	1.87112	0.5825	61.88	-0.2438	-0.0469	0.1969	657.0932	0.103975	-303.553222	-303.547289	-303.546344	-303.583364	21.298
C          0.01340        1.50560       -0.00010
C          0.01130        0.00200        0.01070
N          0.16800       -0.62690       -1.16170
C          0.16380       -1.95880       -1.13510
C          0.00520       -2.67740        0.04730
N         -0.15180       -2.06450        1.22120
C         -0.14720       -0.73200        1.19170
H          0.95610        1.88310       -0.40880
H         -0.78820        1.88390       -0.64230
H         -0.12090        1.91480        1.00410
H          0.29090       -2.47150       -2.08570
H          0.00460       -3.76420        0.04820
H         -0.27440       -0.22090        2.14330
