14
gdb 4889	5.3731	1.38697	1.16898	3.715	60.05	-0.191	0.0461	0.2371	983.689	0.107499	-415.898986	-415.891179	-415.890235	-415.931587	27.67
C          0.11670        1.28910        0.19980
O         -0.23930        0.25040       -0.71930
C         -1.29460       -0.50060       -0.34780
C         -1.34500       -1.75420        0.14280
N         -2.70070       -2.06600        0.31210
C         -3.52040       -1.02460       -0.09470
O         -4.73370       -0.98060       -0.12480
N         -2.60920       -0.03410       -0.46500
H          0.98000        1.79890       -0.23070
H         -0.70230        2.00650        0.32990
H          0.38140        0.86680        1.17600
H         -0.55050       -2.43250        0.39640
H         -3.07800       -2.95370        0.59130
H         -2.89620        0.80190       -0.94350
