14
gdb 4762	4.60011	1.55053	1.17029	1.997	62.43	-0.181	0.0514	0.2324	970.816	0.106211	-415.868926	-415.860765	-415.859821	-415.901953	28.515
C         -0.00470        1.42610        0.04970
N         -0.02160       -0.02420        0.03220
C          0.50300       -0.65500        0.98810
N          0.57760       -2.02360        1.15400
C          1.41500       -2.31150        2.25890
C          1.69280       -1.13600        2.82490
O          2.32250       -0.81290        3.96150
O          1.13760       -0.09850        2.10560
H          0.89820        1.84950        0.51130
H         -0.06950        1.79640       -0.97780
H         -0.87090        1.82800        0.59400
H          0.49040       -2.61740        0.34700
H          1.64950       -3.31160        2.57280
H          2.61710        0.10360        3.89480
