15
gdb 6003	2.67004	1.76365	1.52345	4.119	61.84	-0.2625	-0.0415	0.221	911.9746	0.114811	-399.825859	-399.816594	-399.815649	-399.860374	32.256
C          0.02420        1.44980       -0.32260
C          0.06430       -0.01000        0.06310
O          1.05990       -0.58430        0.42100
C         -1.29780       -0.78320        0.03330
C         -1.71570       -1.04120        1.49000
O         -2.34490       -0.04090       -0.57100
C         -1.09840       -2.05750       -0.68400
N         -0.97910       -3.02670       -1.30160
H          0.99480        1.90080       -0.11520
H         -0.20300        1.54930       -1.39020
H         -0.77310        1.97410        0.21120
H         -1.88490       -0.08250        1.98760
H         -2.64400       -1.61520        1.50840
H         -0.92940       -1.58790        2.01200
H         -2.24740       -0.07800       -1.52910
