13
gdb 5440	3.65392	1.93197	1.26723	6.0434	67.78	-0.205	0.0085	0.2135	880.7442	0.098282	-357.699323	-357.692259	-357.691315	-357.730461	26.371
N          0.06840        1.37550        0.15370
C         -0.00690       -0.00760        0.03850
C         -1.10830       -0.85780        0.01050
C         -0.60560       -2.20440       -0.01760
C          0.75520       -2.12950       -0.01840
N          1.10900       -0.78720        0.01780
C         -2.44620       -0.41200       -0.00810
N         -3.53380       -0.00660       -0.02440
H          0.62720        1.81940       -0.56620
H         -0.85350        1.79440        0.17270
H         -1.20340       -3.10070       -0.04990
H          1.51020       -2.89690       -0.04820
H          2.04500       -0.43400        0.12000
