20
gdb 14460	3.63216	2.07051	2.04275	0.0443	77.25	-0.2496	0.0943	0.3439	812.7215	0.18061	-311.893299	-311.886819	-311.885874	-311.923318	27.506
C         -0.02540        1.49070        0.03080
C          0.01490       -0.01190       -0.03040
C          0.23820       -0.76770       -1.34180
C          0.17580       -2.20050       -0.76460
C          1.20860       -2.11700        0.38570
C          0.63010       -0.87600        1.05840
C         -0.87210       -0.90650        0.82010
C         -1.16460       -2.16520        0.00930
H          0.91660        1.93050       -0.31830
H         -0.83000        1.89490       -0.59510
H         -0.19460        1.84320        1.05360
H         -0.54840       -0.57380       -2.08030
H          1.20640       -0.53810       -1.80210
H          0.30500       -3.01770       -1.47420
H          1.19340       -3.00200        1.03120
H          2.23180       -1.97060        0.02280
H          1.05520       -0.43870        1.95310
H         -1.57010       -0.49210        1.53670
H         -2.03030       -2.05730       -0.65310
H         -1.31470       -3.05300        0.63350
