17
gdb 5905	3.90737	1.26579	1.21453	3.3977	74.21	-0.2782	0.0182	0.2964	1053.7466	0.139345	-326.717731	-326.708556	-326.707611	-326.751026	33.568
C         -0.04260        1.56450        0.05470
C          0.00200        0.02090        0.04430
C          0.72760       -0.50150        1.30360
C         -1.36260       -0.51310        0.00240
C         -2.47950       -0.95520       -0.03960
C          0.73040       -0.48640       -1.24400
C          2.11460       -0.02840       -1.34010
N          3.20810        0.34060       -1.40460
H          0.97220        1.97300        0.06400
H         -0.56520        1.94790       -0.82620
H         -0.56930        1.92130        0.94320
H          0.20880       -0.16600        2.20500
H          0.75540       -1.59470        1.31530
H          1.75450       -0.12560        1.33260
H         -3.46850       -1.34170       -0.06740
H          0.71960       -1.58080       -1.26210
H          0.18460       -0.14570       -2.12960
