12
gdb 5457	3.53553	2.00024	1.28768	2.9367	64.05	-0.2643	-0.0532	0.2111	866.0085	0.084929	-377.573281	-377.566454	-377.56551	-377.604619	23.979
C         -0.00490        1.52510        0.13030
C          0.01560        0.04240        0.01390
C         -0.00400       -0.74040       -1.10720
O          0.02850       -2.05870       -0.71260
C          0.06590       -1.99030        0.62950
N          0.06070       -0.79240        1.12000
C         -0.04820       -0.44230       -2.48220
N         -0.08490       -0.15960       -3.60550
H          0.88660        1.87840        0.65810
H         -0.04120        1.99680       -0.85380
H         -0.87490        1.85000        0.70950
H          0.09620       -2.92940        1.16030
