20
gdb 15874	2.16374	2.08404	1.20758	2.9884	75.53	-0.241	-0.0207	0.2203	1059.1041	0.175821	-349.010252	-349.001415	-349.000471	-349.04376	32.527
C         -1.07710        0.67790       -1.39050
C          0.05400       -0.23000       -0.92610
C          1.49370       -0.01150       -1.45970
C          2.03670       -0.42180       -0.06610
C          3.27790        0.25670        0.49830
C          0.61350       -0.13030        0.54320
C          0.47870        1.23410        1.15820
O          0.02310        1.44510        2.25540
H         -0.82310        1.73770       -1.28740
H         -1.30370        0.49660       -2.44690
H         -1.99330        0.49700       -0.81810
H         -0.23370       -1.27430       -1.08820
H          1.81340       -0.59500       -2.32690
H          1.68650        1.04720       -1.66810
H          2.17830       -1.50750       -0.04200
H          3.20410        1.34820        0.45940
H          3.44820       -0.02930        1.54190
H          4.16560       -0.03230       -0.07480
H          0.23100       -0.85740        1.26290
H          0.83370        2.08280        0.52920
