16
gdb 13570	4.04368	1.29826	1.23656	2.7124	74.29	-0.2596	-0.0564	0.2032	1043.9173	0.128444	-346.576212	-346.56785	-346.566906	-346.609207	30.486
C         -0.30480        1.48040        0.08750
C         -0.02030       -0.00350        0.09210
C          1.31070       -0.55400       -0.28840
C          0.86690       -0.67310        1.16120
C          1.55670        0.15530        2.18230
O          2.17730        1.17260        1.93020
C          1.44110       -0.32840        3.55030
C          1.34560       -0.73840        4.67820
H          0.56670        2.05330        0.40880
H         -0.57660        1.80410       -0.92320
H         -1.14050        1.72510        0.75170
H         -0.87390       -0.62350       -0.17000
H          1.36930       -1.47050       -0.86450
H          2.11070        0.15870       -0.45990
H          0.52970       -1.64070        1.51370
H          1.27060       -1.08470        5.68040
