19
gdb 15364	5.54991	0.89079	0.8329	3.0688	73.26	-0.2383	-0.022	0.2162	1400.2157	0.163192	-365.039191	-365.030046	-365.029101	-365.074022	31.951
C          0.08740       -2.86250       -0.35830
C          0.86200       -1.53960       -0.39920
C          1.28730       -1.09910        0.98750
C          2.61990       -1.46970        1.54660
N          2.30460       -0.07640        1.23400
C          2.99820        0.55140        0.12330
C          4.14890        1.39870        0.64780
O          5.13570        1.66310        0.01290
H         -0.80390       -2.77880        0.27280
H         -0.23980       -3.15800       -1.35930
H          0.70660       -3.66900        0.04750
H          1.73580       -1.64740       -1.05020
H          0.23110       -0.76160       -0.84920
H          0.45630       -1.02810        1.69030
H          2.74580       -1.70650        2.59970
H          3.30330       -1.99440        0.87880
H          3.39540       -0.12880       -0.64450
H          2.30530        1.24210       -0.38030
H          3.98910        1.77300        1.68320
