17
gdb 10488	2.88108	1.65464	1.26605	4.6498	68.55	-0.2678	0.031	0.2989	1002.6886	0.140672	-363.85145	-363.842883	-363.841939	-363.884917	30.705
C          0.43370       -0.73620        1.56320
O          0.02410       -0.35340        0.26190
C         -1.25890       -0.76120       -0.09820
C         -2.39400       -0.03210        0.61730
C         -2.35940        1.41550        0.40230
N         -2.33920        2.55820        0.23490
C         -1.41400       -1.11620       -1.54260
C         -1.45970       -2.20600       -0.48750
H          1.48520       -0.45650        1.65400
H         -0.13120       -0.21510        2.34860
H          0.33410       -1.81950        1.71670
H         -3.35650       -0.41640        0.26490
H         -2.35930       -0.22480        1.69590
H         -2.33220       -0.84070       -2.04930
H         -0.51850       -1.04680       -2.14820
H         -0.59520       -2.85520       -0.40980
H         -2.40830       -2.68620       -0.27210
