17
gdb 12912	3.41353	1.89458	1.59747	2.2228	70.19	-0.2404	-0.0353	0.2051	867.7952	0.141408	-363.827828	-363.820115	-363.81917	-363.859635	28.704
C         -0.08940        1.46150       -0.02700
C         -0.00580       -0.03720       -0.03420
C         -1.20480       -0.98810       -0.11290
C         -0.48860       -1.81840        0.97850
N          0.66170       -0.83900        1.04470
C          1.29050       -0.75020       -0.30760
C          1.46210       -1.84200       -1.30090
O          0.75140       -2.80860       -1.45950
H          0.85330        1.90640        0.30340
H         -0.31800        1.84290       -1.02870
H         -0.88150        1.79980        0.64980
H         -2.12780       -0.51640        0.23130
H         -1.38300       -1.47840       -1.07100
H         -0.99510       -1.80350        1.94550
H         -0.20220       -2.83640        0.72190
H          2.16080       -0.09960       -0.26310
H          2.35230       -1.68740       -1.95270
