16
gdb 9699	3.12258	1.80311	1.63101	2.9054	69.31	-0.2553	0.0086	0.2639	867.8156	0.132065	-342.803719	-342.796171	-342.795227	-342.835857	28.34
N          0.10920        1.57840       -0.20890
C         -0.04000        0.14250        0.05310
C          0.52360       -0.23060        1.46430
C         -0.53120       -1.13720        2.04420
C         -1.64310       -1.15480        1.31420
C         -1.55020       -0.26350        0.10260
C          0.64810       -0.67130       -0.97530
N          1.20070       -1.26180       -1.80260
H          1.09600        1.82330       -0.23760
H         -0.26190        1.80170       -1.12920
H          1.51120       -0.69870        1.40340
H          0.63330        0.68950        2.05210
H         -0.37870       -1.67800        2.97090
H         -2.54190       -1.71240        1.55060
H         -2.15350        0.64520        0.22230
H         -1.87630       -0.75250       -0.82080
