16
gdb 21074	3.35379	2.03872	1.28845	1.1842	68.13	-0.2006	0.0291	0.2297	922.2693	0.130406	-379.942671	-379.934189	-379.933244	-379.975805	29.641
C         -0.03570        1.40580       -0.03200
N          0.00890       -0.03720        0.03340
N          0.00060       -0.75520       -1.10340
C          0.04190       -2.02830       -0.70680
C          0.07830       -2.11780        0.69770
O          0.12680       -3.21460        1.51070
C          0.05550       -0.81370        1.15800
C          0.07540       -0.28090        2.55020
H          0.84180        1.85070        0.44920
H         -0.04590        1.67830       -1.08670
H         -0.93700        1.79780        0.45200
H          0.04540       -2.82470       -1.43730
H          0.13010       -4.00370        0.96140
H          0.95700        0.34210        2.74460
H         -0.81020        0.32550        2.77580
H          0.09600       -1.11720        3.25220
