22
gdb 10522	2.64715	1.34246	1.03945	1.3423	78.56	-0.2601	0.0728	0.3328	1245.6265	0.19897	-350.193938	-350.184169	-350.183225	-350.228944	35.613
C         -0.55000        0.70290        3.65780
C         -0.31030       -0.69880        3.08940
C          0.59860       -0.68690        1.85220
C          0.93490       -2.06390        1.29770
C         -0.22780       -2.84980        0.73500
O         -0.79780       -2.10760       -0.33740
C          2.26700       -2.24580        0.61120
C          2.02870       -2.86250        1.96800
H         -1.01490        1.35740        2.91210
H         -1.20780        0.67440        4.53220
H          0.39170        1.17210        3.96480
H          0.13520       -1.33970        3.86120
H         -1.27610       -1.15240        2.83490
H          0.12540       -0.09600        1.05900
H          1.53510       -0.17350        2.10650
H          0.13060       -3.83300        0.38950
H         -0.97600       -3.03620        1.52130
H         -1.61400       -2.54200       -0.60130
H          2.31180       -2.90410       -0.24990
H          2.92770       -1.38780        0.54790
H          2.52200       -2.41830        2.82630
H          1.92360       -3.94110        2.03030
