20
gdb 5984	4.17068	0.9938	0.96779	2.1145	67.	-0.254	0.0504	0.3044	1274.016	0.174493	-423.268277	-423.258232	-423.257287	-423.302924	36.598
C         -0.11270        1.57150        0.08410
C         -0.00310        0.04060       -0.03240
O          0.69140       -0.48040        1.09940
C         -1.40570       -0.60080       -0.05530
O         -2.04580       -0.48550        1.21390
C          0.77590       -0.39490       -1.28140
C          2.22590        0.09700       -1.34010
O          2.90980       -0.40520       -2.48040
H          0.87290        2.01640        0.23520
H         -0.56340        2.01530       -0.81040
H         -0.72380        1.84910        0.95050
H          0.03120       -0.53650        1.80370
H         -2.02220       -0.17400       -0.85820
H         -1.30340       -1.67540       -0.23440
H         -2.39990        0.40530        1.29530
H          0.78650       -1.49290       -1.29900
H          0.24970       -0.06270       -2.18430
H          2.26260        1.18600       -1.44010
H          2.74210       -0.16680       -0.40760
H          2.98580       -1.35910       -2.37670
