12
gdb 3861	7.87008	2.07029	1.64488	3.8513	53.37	-0.2077	0.0307	0.2384	703.5086	0.091829	-356.691214	-356.6849	-356.683956	-356.720885	24.007
N          0.04070        1.37270        0.15000
C         -0.08240        0.00640        0.06120
C         -1.15660       -0.83670        0.07940
C         -0.54790       -2.12450        0.03940
N         -1.19750       -3.34660        0.11430
N          0.76630       -2.06980       -0.01640
O          1.06310       -0.67910        0.00850
H          0.92000        1.72650       -0.20000
H         -0.75290        1.89240       -0.19250
H         -2.20190       -0.58880        0.14860
H         -2.06940       -3.37980       -0.39440
H         -0.59430       -4.12020       -0.13320
