14
gdb 1413	5.12611	1.62042	1.38625	3.32	61.02	-0.2533	0.0207	0.274	866.1768	0.111518	-324.569051	-324.561042	-324.560098	-324.60211	27.757
C         -0.15690        1.67540        0.04510
C         -0.01650        0.14170        0.04730
N          0.74440       -0.33440        1.20490
C          2.08350       -0.55500        1.14480
O          2.77520       -0.35500        0.16810
C         -1.31770       -0.52390        0.00140
C         -2.40010       -1.04550       -0.01100
H          0.83710        2.12900        0.04240
H         -0.69980        2.00450       -0.84490
H         -0.70380        2.01510        0.92900
H          0.57630       -0.14960       -0.82690
H          0.24370       -0.54880        2.05260
H          2.48200       -0.94280        2.10270
H         -3.35120       -1.51720       -0.04240
