10
gdb 23844	5.95655	1.62023	1.27376	2.7194	51.9	-0.2645	-0.1006	0.1639	817.4373	0.061467	-454.764147	-454.758298	-454.757354	-454.794478	21.411
F          0.01200        0.01610        0.00320
C         -0.04050        1.33780        0.01080
N         -1.19570        1.90080        0.02900
N         -1.16150        3.23770        0.03580
C         -0.02510        4.06460        0.02520
O         -0.13840        5.26540        0.03310
N          1.20090        3.37780        0.00540
C          1.18250        2.08620       -0.00130
H         -2.06360        3.69490        0.05010
H          2.12880        1.54550       -0.01650
