9
gdb 1024	9.73534	2.0068	1.66383	4.6457	50.44	-0.2774	-0.0473	0.2302	654.9897	0.057283	-338.273553	-338.268409	-338.267465	-338.302609	18.024
N          0.02340       -1.14060       -0.00360
C          0.01110        0.01620        0.00270
C         -0.03270        1.43460        0.01090
C         -1.13310        2.23630        0.03030
O         -0.70790        3.52200        0.03140
C          0.64770        3.43600        0.01240
N          1.11190        2.23410       -0.00040
H         -2.19450        2.06080        0.04390
H          1.19270        4.36640        0.00990
