15
gdb 13917	3.80986	1.77021	1.48056	2.4285	61.94	-0.2589	0.0113	0.2702	858.9225	0.119549	-399.766639	-399.759651	-399.758706	-399.798324	25.336
N          0.08150        1.20310       -0.24560
C          0.05540       -0.02180        0.01480
O          1.04170       -0.88200        0.45420
C          0.10740       -2.00930        0.46160
C         -1.01790       -1.08320       -0.02770
C         -2.37720       -0.92350        0.68050
O         -3.09790       -1.25290       -0.52180
C         -1.87690       -1.35080       -1.27880
H          1.00830        1.60510       -0.09670
H          0.42840       -2.78910       -0.23430
H         -0.00650       -2.41750        1.46950
H         -2.57180       -1.63650        1.49160
H         -2.58720        0.09550        1.02550
H         -1.80200       -0.57520       -2.04970
H         -1.74790       -2.34030       -1.73540
