18
gdb 12761	3.23312	1.64719	1.34904	3.01	72.53	-0.2358	-0.0222	0.2136	973.2992	0.152855	-347.788145	-347.78017	-347.779226	-347.820795	29.675
C         -0.06360        1.52390        0.00810
C          0.03720        0.02550        0.02450
C         -0.83230       -0.84740        0.89650
C          0.65990       -0.92800        1.05020
C          1.24070       -1.79580       -0.07060
C          0.65550       -0.79610       -1.13460
C         -0.27180       -1.33170       -2.19150
O         -0.12360       -1.17210       -3.37790
H          0.88310        1.98460       -0.29610
H         -0.83720        1.86430       -0.69060
H         -0.32170        1.91000        0.99980
H         -1.35230       -0.30820        1.68240
H         -1.39370       -1.69140        0.50420
H          1.15560       -0.69410        1.98470
H          2.33090       -1.81710       -0.10750
H          0.87080       -2.82630       -0.11330
H          1.45190       -0.24100       -1.63590
H         -1.14370       -1.90740       -1.80390
