19
gdb 8279	4.89163	1.03592	0.99565	3.7282	73.9	-0.2477	0.0321	0.2797	1239.6171	0.165758	-365.084911	-365.076409	-365.075465	-365.118629	30.978
C         -0.24430        1.51400       -0.10010
C         -0.04510        0.00120       -0.07350
C          1.22550       -0.49350       -0.83000
C          1.96430       -0.56980        0.53390
C          0.58450       -0.54140        1.24580
N          2.85660       -1.67520        0.78410
C          4.14980       -1.53110        1.18480
O          4.71230       -0.47490        1.38110
H          0.66710        2.04670        0.19450
H         -0.51750        1.85710       -1.10390
H         -1.04120        1.81790        0.58710
H         -0.97270       -0.49480       -0.37140
H          1.08160       -1.48920       -1.26220
H          1.65110        0.16100       -1.59550
H          2.54320        0.33200        0.73340
H          0.49590        0.07450        2.14480
H          0.23500       -1.55250        1.47920
H          2.50710       -2.61260        0.65590
H          4.64710       -2.51310        1.31630
