15
gdb 21306	7.47326	1.12146	0.98726	3.1795	64.03	-0.2523	-0.0078	0.2445	1141.2734	0.118523	-399.778965	-399.771278	-399.770334	-399.812418	26.275
C         -0.14490        1.40760        0.30530
O         -0.20360        0.01310        0.50610
C         -1.02440       -0.63550       -0.43090
C         -1.01660       -2.09570       -0.12270
C         -0.40890       -2.83620        0.84070
C         -0.83450       -4.15900        0.54380
N         -1.62380       -4.21140       -0.49960
O         -1.74200       -2.88630       -0.92950
H          0.51160        1.81700        1.07590
H          0.26550        1.65870       -0.68500
H         -1.13810        1.87360        0.39640
H         -2.05890       -0.25150       -0.39270
H         -0.66650       -0.47000       -1.46210
H          0.23480       -2.48760        1.62860
H         -0.59050       -5.07810        1.05810
