13
gdb 23926	3.71367	1.64669	1.5031	2.6748	46.49	-0.2692	0.0618	0.3309	834.045	0.092242	-530.087513	-530.080383	-530.079439	-530.11977	25.087
F         -0.18480        0.04600        0.10940
C         -0.05230        1.37880        0.06280
F          1.25240        1.66290        0.10140
F         -0.53480        1.79810       -1.11960
C         -0.80290        2.05780        1.19870
C         -2.24030        1.55150        1.43430
C         -1.66220        0.99380        2.75230
O         -0.36290        1.57330        2.47240
H         -0.66590        3.13970        1.08760
H         -2.97960        2.34340        1.55050
H         -2.60190        0.81380        0.71860
H         -2.09020        1.39570        3.67630
H         -1.60950       -0.09800        2.81970
