10
gdb 21744	5.79022	2.4188	1.7061	6.1285	52.6	-0.274	-0.0405	0.2335	657.5523	0.063252	-409.604015	-409.599094	-409.59815	-409.633018	18.655
O         -0.05680        1.32830        0.00980
C          1.26230        1.75850       -0.00040
C          2.12180        0.71800       -0.01430
N          1.30250       -0.40880       -0.01270
N          1.31930       -1.76540       -0.02030
N          0.06020       -2.10520       -0.01020
N         -0.79500       -1.03750        0.00380
C          0.01790       -0.01140        0.00170
H          1.40890        2.82440        0.00410
H          3.19630        0.68210       -0.02470
