13
gdb 5494	3.45129	1.92646	1.24587	3.8433	65.91	-0.2495	-0.0294	0.2201	899.4936	0.096504	-361.513523	-361.506483	-361.505539	-361.545031	25.265
C         -0.03460        1.50140        0.05970
C         -0.01140        0.00760        0.02340
C         -0.02820       -0.81110       -1.05790
O          0.00350       -2.12580       -0.68520
C          0.04140       -2.15810        0.65750
C          0.03510       -0.88740        1.16170
C          0.06740       -0.51960        2.52860
N          0.09330       -0.19440        3.64000
H          0.85570        1.89990        0.55770
H         -0.07310        1.91660       -0.95030
H         -0.90410        1.87130        0.61310
H         -0.06100       -0.62730       -2.11880
H          0.06990       -3.12940        1.12230
