10
gdb 1586	4.84199	2.24324	1.53301	0.844	50.95	-0.2544	-0.0938	0.1606	719.4434	0.064803	-359.317823	-359.310674	-359.30973	-359.349183	24.719
N         -0.04980        1.32470        0.00830
C          0.08830       -0.01850        0.00090
O          1.12970       -0.64070       -0.01150
C         -1.28400       -0.73050        0.01020
O         -2.32010       -0.09910        0.02360
C         -1.23270       -2.17080        0.00210
C         -1.23130       -3.37410       -0.00440
H          0.76620        1.91230        0.00390
H         -0.97510        1.72230        0.01900
H         -1.21940       -4.43730       -0.01070
