14
gdb 12050	4.09108	1.74506	1.54426	3.1053	61.7	-0.2602	0.0008	0.261	829.765	0.107033	-378.673937	-378.666836	-378.665892	-378.705083	26.654
O         -0.09720        1.41260       -0.05440
C         -0.02620        0.00810        0.01570
C          0.19230       -0.67870        1.41110
N         -1.12870       -1.38690        1.33100
C         -2.13670       -0.31850        1.24640
C         -1.39690       -0.66570        0.01840
C          0.87890       -0.52060       -1.01390
N          1.62110       -0.90040       -1.81450
H          0.79760        1.77010       -0.09670
H          1.01430       -1.39480        1.42710
H          0.27930        0.02150        2.24720
H         -3.15390       -0.68980        1.31850
H         -1.95370        0.63250        1.73910
H         -1.84300       -1.15710       -0.83810
