13
gdb 6252	3.71739	1.39273	1.01959	3.6107	57.59	-0.257	-0.0989	0.1581	1067.138	0.093009	-435.798704	-435.790302	-435.789357	-435.832631	27.898
C          0.41600        1.37000       -0.27710
C         -0.02630       -0.02370        0.13010
O         -0.42670       -0.31720        1.22470
N          0.08110       -0.95530       -0.92110
C         -0.23190       -2.29820       -0.90020
O         -0.66090       -2.95590        0.01480
C          0.03390       -2.95480       -2.26450
O          0.46130       -2.35340       -3.21590
H          1.46070        1.36470       -0.60590
H         -0.19220        1.74240       -1.10830
H          0.30800        2.03520        0.57840
H          0.42740       -0.63690       -1.81870
H         -0.20980       -4.03420       -2.27370
