12
gdb 21092	7.33472	1.38361	1.17268	2.7665	66.33	-0.2623	-0.0368	0.2254	955.6656	0.084064	-373.655548	-373.648506	-373.647562	-373.687095	24.677
C          0.03050        1.44460        0.00890
N         -0.02740       -0.00430        0.02960
N         -0.24420       -0.72910       -1.06520
N         -0.23300       -1.97750       -0.68820
C         -0.00390       -1.96510        0.65630
N          0.12910       -0.72150        1.12900
C          0.08280       -3.12820        1.45600
C          0.15440       -4.12600        2.12170
H          1.00920        1.77870        0.35850
H         -0.13160        1.75960       -1.02090
H         -0.74680        1.85310        0.65760
H          0.21750       -5.00700        2.71170
