17
gdb 11360	4.41389	1.35557	1.11302	3.7124	71.26	-0.2102	0.0043	0.2145	1080.0242	0.142437	-363.922042	-363.914047	-363.913103	-363.954657	29.491
C          0.02690        1.54610        0.21920
C         -0.01640        0.04130       -0.10170
C         -1.39930       -0.52570       -0.12260
C         -2.10540       -1.04820       -1.13460
C         -3.46130       -1.46580       -0.63160
C         -3.41920       -1.10200        0.86290
O         -4.27130       -1.25480        1.70670
N         -2.16700       -0.54650        1.06070
H          1.05860        1.90920        0.22100
H         -0.53750        2.11740       -0.52350
H         -0.40370        1.76330        1.20200
H          0.44090       -0.14310       -1.07840
H          0.58940       -0.50360        0.63550
H         -1.75640       -1.15060       -2.15110
H         -4.29580       -0.93810       -1.10880
H         -3.66930       -2.53700       -0.73890
H         -1.85630       -0.23350        1.96550
