18
gdb 12532	3.31177	1.8455	1.25121	1.0471	76.43	-0.2161	-0.0237	0.1925	968.7029	0.155429	-347.813226	-347.805734	-347.80479	-347.845038	29.109
O          0.06230        1.40450        0.15140
C          0.02250       -0.00940       -0.03010
C         -1.44970       -0.42550        0.10090
C         -1.65350       -1.90180        0.44940
C         -1.04900       -2.93630       -0.45830
C         -0.16440       -2.79740       -1.45840
C          0.52140       -1.60280       -1.94560
C          0.62110       -0.40430       -1.35710
H          0.97980        1.68700        0.08310
H          0.58910       -0.50410        0.77960
H         -1.89300        0.18800        0.89150
H         -1.97020       -0.17750       -0.82950
H         -1.29630       -2.09390        1.47290
H         -2.73490       -2.09180        0.49910
H         -1.40450       -3.94700       -0.26330
H          0.09510       -3.70580       -1.99880
H          1.03130       -1.73170       -2.89780
H          1.16870        0.38490       -1.86860
