16
gdb 11941	3.04031	2.03727	1.56092	2.7578	66.79	-0.2445	-0.0348	0.2097	857.5365	0.128659	-383.712234	-383.704527	-383.703583	-383.744129	28.37
C         -0.02860        1.49200        0.24990
C         -0.00270        0.00870        0.03810
C         -0.90910       -0.95770        0.74140
C          0.57840       -1.10590        0.93660
O          1.17270       -1.78690       -0.16570
C          0.74150       -0.73620       -1.07280
C          1.28890       -0.97400        2.21260
O          0.84220       -0.38060        3.16950
H          0.92470        1.95220       -0.02990
H         -0.81930        1.96190       -0.34670
H         -0.21900        1.72370        1.30200
H         -1.43310       -0.55080        1.59990
H         -1.41930       -1.74850        0.19820
H          0.14750       -1.12680       -1.90720
H          1.60640       -0.18350       -1.45720
H          2.29660       -1.44260        2.22050
