21
gdb 1695	3.71059	1.85443	1.34447	0.9884	71.29	-0.2475	0.0839	0.3314	977.8871	0.192185	-312.122262	-312.112762	-312.111818	-312.156025	33.936
C          0.02910        1.37690        0.10260
O         -0.04430       -0.02020       -0.04110
C          0.65420       -0.54970       -1.16630
C          2.15440       -0.64290       -0.87100
C         -0.00040       -1.90660       -1.48640
C         -1.49400       -1.73160       -1.79400
C          0.70500       -2.63800       -2.63690
H          1.04910        1.73340        0.31030
H         -0.33870        1.89910       -0.79510
H         -0.60640        1.64750        0.95010
H          0.49870        0.12220       -2.02980
H          2.34240       -1.37040       -0.07450
H          2.71860       -0.94280       -1.75790
H          2.54990        0.32380       -0.54630
H          0.09310       -2.51640       -0.57680
H         -1.97820       -2.70310       -1.93680
H         -2.00010       -1.20670       -0.98210
H         -1.63620       -1.15360       -2.71580
H          1.73670       -2.90530       -2.39330
H          0.17390       -3.56370       -2.88000
H          0.72150       -2.02260       -3.54500
