16
gdb 13962	5.11971	1.22658	1.11512	2.1121	65.36	-0.2373	-0.0286	0.2087	1049.8965	0.129041	-383.698113	-383.690542	-383.689598	-383.731013	27.305
O         -0.66200        0.59310        0.57340
C          0.15300        0.90440       -0.25500
C          1.26100        1.92120       -0.04040
C          1.26460        2.97580       -1.11420
C          1.90350        2.81040       -2.48580
C          2.32000        3.94470       -1.60350
O          1.39820        5.02950       -1.70300
C          0.33800        4.19250       -1.16710
H          0.14140        0.45430       -1.27440
H          1.14730        2.35280        0.95930
H          2.21430        1.37440       -0.06690
H          2.61110        1.98920       -2.55750
H          1.34430        3.01900       -3.39390
H          3.33120        4.16030       -1.27710
H         -0.53570        4.14670       -1.82780
H          0.03470        4.54740       -0.17510
