14
gdb 864	6.30608	2.17788	1.63864	1.3555	61.51	-0.1764	0.0421	0.2186	744.0315	0.114106	-324.611571	-324.604717	-324.603773	-324.642046	25.24
C          0.11670        1.45110        0.02520
C         -0.06960       -0.02020       -0.03730
C         -1.14230       -0.83830       -0.16800
C         -0.65560       -2.19280       -0.14550
C          0.69510       -2.09000       -0.00790
N          1.73720       -3.01040       -0.00630
O          1.07490       -0.79080        0.05900
H          0.76060        1.81750       -0.78370
H         -0.85340        1.94580       -0.06450
H          0.57240        1.76780        0.97150
H         -2.16980       -0.52160       -0.26320
H         -1.22990       -3.10210       -0.22050
H          1.42810       -3.93920        0.24570
H          2.50590       -2.72210        0.58670
