16
gdb 4021	3.26732	1.40667	1.10398	3.6702	68.16	-0.2637	-0.0096	0.2542	1073.4763	0.128017	-379.902336	-379.89309	-379.892146	-379.936783	32.14
C          0.01160        1.59170        0.02890
C         -0.06210        0.05530        0.00600
C          0.74040       -0.52090        1.09660
N          1.37080       -0.97320        1.95320
C         -1.47430       -0.51850        0.05490
C         -1.66610       -2.00760       -0.02430
N         -2.42370        0.32920        0.13730
O         -3.67370       -0.29570        0.14310
H          1.05290        1.91510       -0.03760
H         -0.54770        1.99930       -0.81460
H         -0.42480        1.98640        0.94760
H          0.39630       -0.30530       -0.92710
H         -2.24590       -2.36000        0.83390
H         -2.24150       -2.26590       -0.91940
H         -0.71160       -2.53590       -0.04530
H         -4.27710        0.45140        0.21910
