15
gdb 14356	4.52478	2.33703	2.064	1.5657	64.34	-0.2552	0.0037	0.2589	691.1071	0.1217	-362.583851	-362.578526	-362.577582	-362.612917	22.446
C         -0.07000        1.52250        0.00300
C          1.45240        1.27840        0.01860
C          1.17490        0.09740        1.05000
C          0.11810       -0.03340       -0.08580
N         -0.88140       -0.84820       -0.75970
C         -0.60890       -0.57950       -1.98150
O          0.49200        0.19440       -2.30920
C          1.24430        0.18020       -1.07080
H         -0.51610        1.90330        0.92340
H         -0.48090        2.00750       -0.88260
H          2.25200        2.01390        0.09330
H          1.93000       -0.68980        1.11590
H          0.82600        0.41480        2.03400
H         -1.18850       -0.89820       -2.84050
H          2.03470       -0.57050       -1.16230
