13
gdb 21300	7.33551	1.36753	1.16185	1.8972	56.71	-0.2358	0.0183	0.2541	970.9285	0.096406	-431.921005	-431.913749	-431.912805	-431.952454	26.103
C         -0.02520        1.36370        0.00470
O          0.02690       -0.06620       -0.02790
C          0.64160       -0.59150       -1.07820
N          1.17540        0.12080       -2.04390
O          1.69320       -0.89810       -2.90230
C          1.38740       -2.05890       -2.31500
N          1.81790       -3.19680       -2.91310
N          0.73690       -1.95230       -1.18920
H          0.98410        1.78590        0.01620
H         -0.56080        1.75000       -0.86760
H         -0.55570        1.61940        0.92170
H          2.03320       -3.14050       -3.89550
H          1.37010       -4.04410       -2.60370
