11
gdb 923	6.00403	2.80433	1.91151	2.1772	54.42	-0.2462	-0.0495	0.1966	604.0391	0.082053	-339.50409	-339.49897	-339.498026	-339.532954	19.155
O         -0.05010       -0.08350        0.00370
C          0.02330        1.12890        0.00900
N         -1.15510        1.91880        0.02860
C         -1.16230        3.27300        0.03560
N         -0.09560        4.00940        0.02510
C          1.09410        3.31920        0.00570
C          1.20660        1.96460       -0.00260
H         -2.02330        1.39890        0.03750
H         -2.14280        3.74310        0.05100
H          1.98310        3.94390       -0.00300
H          2.16800        1.46730       -0.01800
