11
gdb 23719	6.03645	1.56275	1.24138	1.9966	55.86	-0.247	-0.0592	0.1878	849.3959	0.073455	-438.740947	-438.73511	-438.734166	-438.770982	22.183
O          0.08760        1.33430        0.10550
C          0.06750       -0.01120        0.05060
N          0.09850       -0.60140       -1.13750
C          0.07740       -1.93520       -1.15460
C          0.02510       -2.64920        0.03590
F          0.00460       -3.97780        0.00320
N         -0.00600       -2.07540        1.22020
C          0.01480       -0.74690        1.24260
H          0.12390        1.64880       -0.80840
H          0.10200       -2.43950       -2.11510
H         -0.00990       -0.24680        2.20520
