11
gdb 3432	5.17881	3.0336	2.17018	4.2834	46.22	-0.2676	-0.0167	0.2509	571.0194	0.079507	-380.401348	-380.396123	-380.395179	-380.430397	19.204
O          0.01940        0.01290        0.20620
C          0.02510        1.18900       -0.00280
O         -1.11450        1.91810       -0.18670
C         -0.83450        3.25490       -0.63690
C          0.66490        3.42600       -0.51240
O          1.11290        3.20120        0.82040
C          1.20660        2.12050       -0.12550
H         -1.16770        3.35520       -1.67570
H         -1.39090        3.95430       -0.00680
H          1.20710        4.16070       -1.09880
H          2.19490        1.73700       -0.34820
