21
gdb 6375	4.4793	0.97381	0.95002	3.2493	76.58	-0.242	0.0368	0.2788	1361.6878	0.186852	-366.310724	-366.300368	-366.299424	-366.347213	36.034
C         -0.01260        1.46350        0.30690
N         -0.17830        0.02380        0.33320
C         -1.28610       -0.60080       -0.16440
O         -2.22770        0.00790       -0.64510
C         -1.24760       -2.12690       -0.10230
C         -2.63010       -2.74380        0.16620
C         -2.60470       -4.25940       -0.06310
C         -3.13180       -2.40170        1.57510
H          0.85230        1.75800       -0.29870
H         -0.91670        1.88310       -0.13570
H          0.11360        1.86950        1.31690
H          0.55830       -0.54150        0.72040
H         -0.87640       -2.47290       -1.07620
H         -0.52260       -2.46990        0.64790
H         -3.31620       -2.28710       -0.55570
H         -1.91150       -4.75500        0.62790
H         -3.59600       -4.69580        0.09720
H         -2.29080       -4.50700       -1.08290
H         -3.19490       -1.31940        1.71950
H         -4.12890       -2.81990        1.74660
H         -2.46430       -2.81320        2.34290
