20
gdb 12838	2.86079	2.36083	1.73479	0.1298	79.04	-0.2332	0.0284	0.2616	860.5743	0.178793	-311.878856	-311.871637	-311.870693	-311.909811	29.28
C         -0.28320        1.45720        0.17040
C          0.08660       -0.00460       -0.03550
C         -1.09410       -1.00090        0.21520
C         -0.44470       -1.44980        1.55280
C          0.86020       -0.70420        1.14420
C          1.89170       -1.53380        0.43220
C          1.91030       -1.31570       -0.88370
C          0.90390       -0.27610       -1.31980
H          0.61010        2.09210        0.19140
H         -0.93030        1.81850       -0.63800
H         -0.82060        1.60700        1.11370
H         -2.08730       -0.54910        0.28750
H         -1.13420       -1.80040       -0.52920
H         -0.92300       -1.00220        2.42840
H         -0.35810       -2.52660        1.72000
H          1.29700       -0.06520        1.92070
H          2.53900       -2.23120        0.95500
H          2.57890       -1.80530       -1.58450
H          0.26530       -0.62710       -2.14160
H          1.40580        0.62980       -1.69070
