14
gdb 9600	4.67047	1.33603	1.21956	2.1372	61.11	-0.2701	-0.0709	0.1992	971.6047	0.103204	-419.671077	-419.662851	-419.661907	-419.703973	28.353
C          0.16260        1.57130       -0.02240
C          0.03050        0.07430        0.03280
O          1.19840       -0.71830       -0.18210
C          0.63880       -0.77870        1.11360
C          1.38570       -0.15060        2.25330
O          2.29330        0.62990        2.13500
C         -1.19690       -0.53640       -0.59210
O         -2.17050        0.09190       -0.91220
H          1.05920        1.90110        0.50110
H          0.22250        1.89050       -1.06700
H         -0.72350        2.03890        0.41420
H          0.14180       -1.71880        1.36420
H          1.01290       -0.47190        3.25080
H         -1.11450       -1.63620       -0.73870
