16
gdb 16814	3.77453	1.87027	1.41881	3.0158	64.23	-0.2424	-0.0293	0.213	880.0161	0.130521	-383.753559	-383.746456	-383.745511	-383.784884	26.957
C          0.10530        1.57520        0.03360
C          0.00520        0.04910        0.02010
C          0.65760       -0.62780       -1.21280
C          1.21550       -1.96500       -0.70960
O          1.37730       -2.97090       -1.35040
C          1.44150       -1.81580        0.77460
O          2.13120       -0.58470        1.07760
C          0.71220       -0.60700        1.20230
H          1.15440        1.88720        0.04600
H         -0.36940        2.00840       -0.85210
H         -0.38510        1.99790        0.91690
H         -1.05140       -0.24570        0.06770
H         -0.03180       -0.79410       -2.04230
H          1.49250       -0.02720       -1.59140
H          1.66410       -2.67000        1.40530
H          0.32800       -0.50020        2.21430
