18
gdb 11235	5.15963	1.24244	1.05479	0.9136	80.46	-0.2326	0.0273	0.2599	1132.4152	0.153196	-310.658209	-310.650032	-310.649088	-310.690672	30.904
C         -0.00470        1.50280        0.04510
C          0.02520        0.00860       -0.01730
C         -0.00700       -0.76030       -1.10790
C         -0.02360       -2.23340       -0.78790
C          0.38990       -2.25930        0.71750
C          0.03880       -0.83440        1.24150
C         -0.19130       -3.34900        1.48680
C         -0.68420       -4.24530        2.11920
H          0.87550        1.89700        0.56910
H         -0.03510        1.94810       -0.95300
H         -0.88100        1.85800        0.60290
H         -0.06300       -0.38550       -2.12480
H         -1.02500       -2.66220       -0.92660
H          0.65890       -2.82820       -1.40420
H          1.48210       -2.35550        0.74970
H          0.75920       -0.48570        1.99000
H         -0.94600       -0.82290        1.72810
H         -1.11420       -5.03870        2.67830
