18
gdb 7005	2.61202	1.88498	1.51568	2.0833	63.75	-0.249	0.0671	0.316	918.437	0.150992	-422.058971	-422.049831	-422.048887	-422.091847	34.188
C         -0.09930        1.52710       -0.00860
C         -0.01930        0.00570       -0.00090
O         -1.29420       -0.58440       -0.16990
C          1.12520       -0.56810       -0.88960
O          1.51950        0.26840       -1.95260
C          2.02060       -0.67160        0.37540
C          0.72170       -0.57910        1.22580
O          0.70410        0.24350        2.36720
H          0.87370        1.98990        0.16630
H         -0.45750        1.87640       -0.98290
H         -0.78600        1.85910        0.77320
H         -1.75090       -0.11160       -0.87390
H          0.82760       -1.56270       -1.24840
H          2.24930       -0.15380       -2.41610
H          2.65200       -1.55510        0.49200
H          2.62220        0.23310        0.49690
H          0.31400       -1.57550        1.44020
H          1.14410       -0.22340        3.08380
