17
gdb 14355	4.30893	2.26333	1.97196	1.209	73.62	-0.2064	0.0101	0.2165	743.0687	0.144384	-326.632765	-326.627038	-326.626094	-326.662065	24.795
C         -0.09980        1.55850        0.13610
C          1.40970        1.26440        0.05920
C          1.18580        0.08180        1.07080
C          0.09160       -0.00210       -0.02950
C         -0.88850       -0.86170       -0.75950
C         -0.67330       -0.65400       -2.06500
C          0.49460        0.30690       -2.31240
N          1.20290        0.20380       -1.02360
H         -0.49730        1.92300        1.08710
H         -0.55040        2.08660       -0.70530
H          2.24650        1.96330        0.03750
H          1.93780       -0.70650        1.04210
H          0.87480        0.35710        2.08010
H         -1.68100       -1.45320       -0.32110
H         -1.26240       -1.06930       -2.87500
H          1.14870       -0.01460       -3.13010
H          0.10720        1.30360       -2.58410
