15
gdb 15936	3.487	2.00191	1.5704	2.0881	62.	-0.2367	-0.0444	0.1923	821.2301	0.118749	-399.750123	-399.743124	-399.74218	-399.781545	25.799
O         -0.73600        1.11600        0.67860
C          0.22070        0.85530       -0.00920
C          1.42210        1.74090       -0.12770
C          1.75450        2.72890        1.01290
N          2.01020        3.82050        0.02470
C          1.53720        2.97840       -1.08870
C          2.67130        2.16900       -1.74290
O          2.54690        1.11060       -0.75480
H          0.27330       -0.06100       -0.63660
H          0.87670        2.88830        1.64780
H          2.62190        2.46460        1.62420
H          1.43410        4.63860        0.18080
H          0.73420        3.36960       -1.71430
H          2.45500        1.79070       -2.74950
H          3.65280        2.65160       -1.71810
