13
gdb 5436	3.50554	1.98554	1.2777	7.4378	66.91	-0.2424	-0.0139	0.2285	883.0334	0.097625	-357.708037	-357.701001	-357.700057	-357.739484	25.198
C         -0.00350        1.52170        0.08380
C          0.01390        0.03630       -0.01220
C         -0.00290       -0.81870       -1.09760
N          0.02560       -2.14230       -0.69550
C          0.05860       -2.09390        0.60900
N          0.05340       -0.80410        1.07180
C         -0.04360       -0.42500       -2.46090
N         -0.07710       -0.06140       -3.56010
H          0.89070        1.90700        0.58700
H         -0.03680        1.95100       -0.91950
H         -0.87890        1.88310        0.63560
H          0.08730       -2.94400        1.27390
H          0.07460       -0.51560        2.03660
