13
gdb 2146	3.85814	3.21877	1.84763	3.0757	55.92	-0.2473	-0.0559	0.1914	653.1331	0.102496	-344.484341	-344.478222	-344.477278	-344.514346	22.742
O          0.14800        1.34940        0.29750
C         -0.01770       -0.01820        0.02740
C         -1.48230       -0.46320       -0.12360
C         -1.43620       -1.41000       -1.29980
C         -0.26560       -1.39200       -1.95490
C          0.63020       -0.41370       -1.31100
O          1.65860        0.07960       -1.71960
H          0.97530        1.59990       -0.13950
H          0.46350       -0.63750        0.80560
H         -1.89730       -0.93310        0.77350
H         -2.10810        0.40880       -0.34890
H         -2.29110       -2.01840       -1.57680
H         -0.00880       -1.94100       -2.85130
