16
gdb 1961	6.98282	1.65194	1.46159	2.3552	64.23	-0.2449	0.0348	0.2797	872.6199	0.135949	-325.781161	-325.773546	-325.772601	-325.813146	26.737
C         -0.36810        1.50330        0.18340
N         -0.38540        0.04800        0.23620
C          0.53840       -0.54980        0.82900
C          0.86880       -1.99900        1.10640
C          2.09130       -1.41240        1.84990
C          3.47350       -1.71960        1.31920
O          1.65380       -0.05630        1.49240
H          0.48320        1.96180        0.70020
H         -0.35630        1.82400       -0.86430
H         -1.29480        1.88860        0.62310
H          0.13750       -2.53030        1.71770
H          1.10230       -2.59300        0.22000
H          2.04740       -1.52670        2.93770
H          3.50780       -1.60120        0.23180
H          4.21520       -1.04900        1.76320
H          3.75210       -2.74950        1.56650
