14
gdb 19675	4.86664	1.81077	1.68156	2.3287	63.96	-0.2689	0.0138	0.2826	776.3639	0.109652	-341.536178	-341.530216	-341.529272	-341.566309	23.021
N          0.02380       -1.20120       -0.09260
C          0.01320       -0.04710       -0.02590
C          0.02750        1.40740        0.07130
C         -0.09100        2.09880        1.42410
C          1.26940        2.21790        2.02730
C          2.28420        1.59590        1.08460
C          1.37520        2.17500       -0.01310
N          0.81340        3.22170        1.00000
H         -0.69270        1.83650       -0.63050
H         -1.00160        2.28020        1.98170
H          1.40100        2.50160        3.06470
H          3.23230        2.13670        1.12580
H          2.46210        0.51720        1.10580
H          1.75710        2.50070       -0.97730
