13
gdb 20621	3.43827	1.98359	1.26779	3.3156	70.44	-0.2435	-0.0425	0.201	897.2933	0.094632	-361.431673	-361.424366	-361.423422	-361.46347	26.31
C         -0.00780        1.53280        0.07530
C          0.01470        0.04030        0.03050
C          0.00310       -0.77940       -1.06740
O          0.03230       -2.07990       -0.67940
N          0.06400       -2.13420        0.70080
C          0.05370       -0.88820        1.10650
C         -0.03240       -0.49830       -2.44580
C         -0.06350       -0.23510       -3.62010
H          0.88350        1.93150        0.57180
H         -0.04530        1.94770       -0.93470
H         -0.87930        1.90310        0.62590
H          0.07410       -0.68200        2.16810
H         -0.09160       -0.01060       -4.65810
