14
gdb 4387	3.82535	1.95156	1.30277	6.3928	67.53	-0.2336	-0.0533	0.1802	887.4296	0.109187	-378.797983	-378.791124	-378.79018	-378.829245	25.285
C         -0.01460        1.52640        0.04480
C         -0.00330        0.03150       -0.06070
C         -0.03770       -0.67490       -1.23050
C         -0.01920       -2.09120       -1.12910
N          0.02780       -2.78010       -0.02100
C          0.06400       -2.09840        1.18580
O          0.10820       -2.61180        2.28150
N          0.04540       -0.67940        1.09260
H          0.88750        1.88680        0.55180
H         -0.06080        1.98220       -0.94500
H         -0.87830        1.86850        0.62590
H         -0.07730       -0.17590       -2.18830
H         -0.04590       -2.67520       -2.05050
H          0.07230       -0.20840        1.98730
