17
gdb 16629	2.99047	2.32655	1.52999	3.9115	67.49	-0.2378	-0.0123	0.2256	850.5603	0.143155	-363.874449	-363.867264	-363.86632	-363.905816	27.708
C          0.18150        1.62060       -0.02750
C          0.08730        0.09500       -0.01370
C          0.71680       -0.62930       -1.18690
N          2.19110       -0.53460       -1.17900
C          1.54000       -1.77310       -0.70310
C          1.48410       -1.83880        0.80560
C          0.78990       -0.52810        1.21340
O          0.78320       -0.05680        2.31970
H          1.21270        1.92910       -0.21930
H         -0.46020        2.05140       -0.80190
H         -0.12330        2.01980        0.94320
H         -0.96920       -0.20690        0.06010
H          0.19800       -0.67230       -2.13910
H          2.55120       -0.67270       -2.11950
H          1.64220       -2.68080       -1.28800
H          0.87420       -2.68360        1.15080
H          2.46190       -1.91290        1.28820
