14
gdb 20465	6.22296	1.47126	1.28786	2.6737	63.96	-0.2372	0.0101	0.2473	910.9278	0.109775	-378.715925	-378.709477	-378.708532	-378.74696	23.828
C          0.21800        1.50790        0.07360
O          1.20900        0.48570       -0.05180
C         -0.16610        0.08400        0.01030
C         -0.54470       -0.67690        1.21570
C         -1.68220       -1.37730        1.56990
C         -1.41340       -1.85230        2.87160
N         -0.20580       -1.48930        3.29620
N          0.29640       -0.76960        2.27650
H          0.19100        2.01940        1.03390
H          0.08650        2.13910       -0.80380
H         -0.57610       -0.28740       -0.92760
H         -2.57290       -1.51510        0.97850
H         -2.04950       -2.44550        3.51210
H          1.24410       -0.43040        2.30600
