22
gdb 13405	5.51502	0.95078	0.85595	1.7353	78.32	-0.2375	0.0823	0.3198	1407.4229	0.200971	-350.219236	-350.210139	-350.209195	-350.254258	32.426
C          0.03580        1.58710        0.13000
C          0.01180        0.06280       -0.01140
C         -1.40960       -0.51490       -0.01360
C         -1.46500       -2.04060       -0.10730
C         -2.88150       -2.64060       -0.08140
C         -2.65630       -4.02510       -0.69370
O         -1.57240       -3.88720       -1.61270
C         -0.92630       -2.63120       -1.42160
H          1.06000        1.97280        0.13260
H         -0.49940        2.06980       -0.69540
H         -0.44280        1.90500        1.06310
H          0.52810       -0.22460       -0.93620
H          0.58380       -0.39110        0.80880
H         -1.92680       -0.19330        0.90050
H         -1.97750       -0.08430       -0.85090
H         -0.89140       -2.46950        0.72620
H         -3.31550       -2.68350        0.92100
H         -3.55020       -2.04420       -0.71400
H         -2.39130       -4.76110        0.08090
H         -3.53070       -4.40680       -1.23280
H         -1.15730       -1.96120       -2.26640
H          0.15740       -2.79250       -1.40990
