13
gdb 3280	5.49452	2.56783	2.07208	1.9615	53.68	-0.2494	-0.031	0.2184	622.9238	0.1018	-344.430692	-344.424922	-344.423977	-344.46045	21.393
O          0.02130        0.01650       -0.40090
C          0.01560        1.16570       -0.07270
C         -1.09100        2.15410        0.36170
C          0.00620        3.23490        0.51730
O          0.57240        3.25960        1.84130
C          1.67100        2.40910        1.44670
C          1.10730        2.24640        0.01430
H         -1.78660        2.34810       -0.46300
H         -1.65830        1.90680        1.26190
H         -0.17900        4.23110        0.11270
H          2.62420        2.94960        1.47880
H          1.74910        1.50240        2.05680
H          1.78000        2.38260       -0.83100
