16
gdb 10164	3.20687	1.28176	0.97349	2.3498	63.5	-0.2496	-0.0528	0.1968	1179.7403	0.125954	-420.87972	-420.870506	-420.869562	-420.914554	30.767
C         -0.08150        1.59840       -0.01200
C         -0.04000        0.09470       -0.21180
O         -1.30530       -0.43590        0.18270
C         -1.41580       -1.82080        0.11870
C         -2.60570       -2.24350        0.98180
O         -2.95450       -3.38570        1.11500
C         -1.60590       -2.38280       -1.29860
O         -1.52280       -1.71830       -2.29460
H          0.87870        2.04160       -0.29170
H         -0.86280        2.04430       -0.63330
H         -0.28770        1.84520        1.03330
H          0.15990       -0.15490       -1.25950
H          0.75180       -0.35950        0.40640
H         -0.53060       -2.34100        0.53490
H         -3.11960       -1.38390        1.46080
H         -1.83320       -3.46960       -1.31330
