20
gdb 17133	6.20314	1.09827	1.01195	1.5415	76.02	-0.2386	0.0924	0.331	1223.4195	0.176885	-348.981236	-348.972956	-348.972012	-349.014621	30.856
C         -0.56760        1.35580        0.07000
C          0.11430        0.00500       -0.04230
C          0.97420       -0.26370       -1.29690
C          2.16300       -0.32410       -0.30940
O          1.27680       -0.09950        0.81740
C          2.92810       -1.60950       -0.20620
C          4.22120       -1.76780       -0.97160
C          4.24350       -1.64430        0.52950
H          0.12490        2.16510       -0.18310
H         -1.42820        1.40960       -0.60630
H         -0.92470        1.51860        1.09180
H         -0.60240       -0.79510        0.18860
H          0.76610       -1.20120       -1.81630
H          1.00460        0.55040       -2.02390
H          2.87080        0.51190       -0.41330
H          2.30110       -2.49330       -0.12010
H          4.43650       -2.73240       -1.41700
H          4.57150       -0.92290       -1.55590
H          4.60530       -0.71560        0.95850
H          4.47610       -2.52480        1.11760
