11
gdb 21623	3.98147	2.06772	1.36094	7.5337	56.7	-0.2659	-0.0816	0.1842	806.0977	0.072478	-430.729567	-430.722849	-430.721905	-430.760664	24.208
N          0.00150        1.32830        0.00800
C         -0.00160       -0.01800        0.00080
N         -1.13570       -0.65910        0.00380
C         -1.11450       -2.02730       -0.00370
O         -2.05790       -2.75790       -0.00220
O          0.16300       -2.68490       -0.01450
N          1.33920       -2.00090       -0.01750
C          1.27130       -0.71850       -0.01020
H          0.85290        1.86020        0.00610
H         -0.88260        1.81120        0.01560
H          2.22220       -0.19520       -0.01280
