18
gdb 5379	4.55219	1.45847	1.21069	0.2938	81.44	-0.2365	0.0044	0.241	1039.8799	0.156336	-310.746321	-310.738992	-310.738048	-310.778386	27.987
C         -0.04410        1.56100        0.05420
C          0.00210        0.02400        0.00150
C          0.70420       -0.49740       -1.23200
C         -0.00410       -0.73670       -2.41360
C          0.64490       -1.18460       -3.56110
C          2.02060       -1.40320       -3.54600
C          2.73890       -1.17050       -2.37550
C          2.08420       -0.72260       -1.23110
H          0.96610        1.98260        0.05350
H         -0.57190        1.96630       -0.81500
H         -0.55740        1.90780        0.95670
H          0.50900       -0.35210        0.89760
H         -1.02100       -0.36840        0.03370
H         -1.07840       -0.57410       -2.43170
H          0.07490       -1.36820       -4.46630
H          2.52800       -1.75550       -4.43790
H          3.81020       -1.34290       -2.35130
H          2.65060       -0.54890       -0.32020
