16
gdb 4861	6.71554	1.29729	1.10227	2.2702	68.49	-0.1927	0.052	0.2446	1072.0308	0.131271	-379.963326	-379.955241	-379.954297	-379.995852	28.723
C          0.02300        1.35520       -0.00410
O         -0.02890       -0.07160       -0.04370
C         -1.26560       -0.58450       -0.00070
N         -2.40240        0.05120        0.07280
C         -3.35770       -0.95740        0.08700
C         -2.78450       -2.19430        0.02280
C         -3.34770       -3.57270        0.00790
N         -1.41410       -1.93740       -0.03480
H          1.08130        1.61490       -0.04720
H         -0.51230        1.78600       -0.85530
H         -0.42720        1.73370        0.91830
H         -4.41040       -0.72460        0.14390
H         -3.08760       -4.11970       -0.90740
H         -3.00070       -4.17440        0.85760
H         -4.43780       -3.52250        0.06310
H         -0.66740       -2.60890       -0.09010
