13
gdb 4001	3.74173	1.12319	0.86856	0.8254	78.37	-0.2297	-0.051	0.1787	1266.4262	0.091713	-361.359729	-361.350685	-361.34974	-361.394687	30.82
C          0.01370        1.42870        0.00950
C         -0.01080       -0.02420        0.00190
C         -0.04230       -1.22930       -0.00420
C         -0.02030       -2.65380       -0.01200
N         -1.15960       -3.27330       -0.00440
O         -0.99980       -4.64520       -0.01330
C          1.24950       -3.30860       -0.02770
C          2.33010       -3.83690       -0.04090
H          1.04210        1.80530        0.00170
H         -0.49970        1.83690       -0.86820
H         -0.48290        1.82750        0.90090
H         -1.91130       -4.95940       -0.00630
H          3.28210       -4.30790       -0.05260
