18
gdb 12801	3.56623	2.03974	1.53175	1.7629	72.43	-0.2412	0.0289	0.2701	877.9099	0.154464	-347.813145	-347.805886	-347.804942	-347.844242	28.508
C         -0.11140        1.49120        0.06760
C         -0.02240       -0.01740        0.03460
C         -1.07930       -0.72340       -0.79620
C         -1.19780       -2.19880       -0.53380
C         -0.59140       -2.83980        0.46150
C          0.30870       -2.17810        1.46720
C          0.65170       -0.74690        1.12290
O          1.30860       -0.53500       -0.13270
H          0.72760        1.91260        0.62690
H         -0.08310        1.90070       -0.94860
H         -1.04570        1.82040        0.53510
H         -2.05070       -0.23950       -0.61600
H         -0.86230       -0.54660       -1.85970
H         -1.83770       -2.75310       -1.21600
H         -0.74130       -3.90990        0.58040
H         -0.16150       -2.19660        2.46180
H          1.24050       -2.75120        1.57580
H          1.07320       -0.16210        1.94290
