17
gdb 18901	3.49119	2.66286	2.19217	1.9649	70.3	-0.2204	0.0845	0.3049	716.1381	0.143697	-326.644007	-326.637952	-326.637007	-326.67368	25.149
C          0.03420        1.57350       -0.02470
C          0.02040        0.07570       -0.04760
C          0.55130       -0.90440       -1.13240
C          0.85200       -1.87100       -0.05160
C          0.60650       -0.86950        1.09210
C         -0.82980       -1.15740        1.59180
C         -1.21270       -0.87320        0.13160
N         -0.49010       -1.90030       -0.73200
H          1.05770        1.96300       -0.07340
H         -0.52110        1.98900       -0.87370
H         -0.42410        1.95850        0.89350
H          0.91390       -0.79750       -2.14850
H          1.43900       -2.78090       -0.06090
H          1.43190       -0.58940        1.74450
H         -1.05690       -2.14220        2.00890
H         -1.19390       -0.37070        2.25990
H         -2.22920       -0.67240       -0.20570
