10
gdb 21752	5.75672	2.49467	1.74045	2.5034	52.15	-0.2745	-0.0389	0.2356	648.151	0.064496	-409.629847	-409.625034	-409.62409	-409.658798	18.018
O         -0.07250        1.32990        0.00990
C          1.25680        1.68500       -0.00090
N          2.10380        0.70740       -0.01430
N          1.26930       -0.37620       -0.01210
N          1.39480       -1.72100       -0.02060
C          0.10440       -2.06640       -0.01000
N         -0.82830       -1.05140        0.00430
C         -0.02320       -0.02130        0.00220
H          1.48580        2.73690        0.00250
H         -0.18660       -3.10580       -0.01280
