17
gdb 14765	10.89637	0.59418	0.57151	5.7499	66.93	-0.2748	0.0098	0.2846	1828.6759	0.140089	-400.98767	-400.978092	-400.977148	-401.023408	31.575
O         -0.14530        1.42510        0.01090
C         -0.00520        0.01480        0.00230
C         -1.40700       -0.58280        0.01240
C         -1.39120       -2.10290        0.00400
O         -2.73530       -2.55910        0.01440
C         -2.82440       -3.95950        0.00770
C         -4.23580       -4.35670        0.01900
N         -5.33700       -4.70300        0.02740
H          0.73310        1.81630        0.00510
H          0.54240       -0.32740       -0.89170
H          0.55900       -0.33660        0.88230
H         -1.94180       -0.23030        0.90010
H         -1.95850       -0.22080       -0.86130
H         -0.87140       -2.48610       -0.89070
H         -0.85440       -2.49570        0.88440
H         -2.34600       -4.39470       -0.88570
H         -2.32920       -4.40420        0.88730
