19
gdb 10725	2.55249	1.70845	1.3888	3.0327	66.84	-0.2473	0.0632	0.3105	996.4561	0.164757	-402.16357	-402.15456	-402.153616	-402.196966	33.565
C          0.95440       -1.38990        0.16020
C         -0.05030       -0.72790       -0.78400
O         -0.06910       -1.37920       -2.05500
C         -1.48090       -0.59700       -0.26270
C         -2.31240        0.40860       -1.04170
O         -1.91640        1.73190       -0.72510
C         -2.16030       -1.73830        0.40390
N         -1.78420       -0.54110        1.18100
H          1.90940       -1.48990       -0.36140
H          1.12860       -0.79100        1.06010
H          0.63790       -2.39400        0.46660
H          0.29830        0.28700       -1.00550
H         -0.46490       -2.24880       -1.92690
H         -2.14800        0.27630       -2.11460
H         -3.37990        0.24980       -0.82950
H         -2.01790        1.80900        0.23170
H         -3.22880       -1.88390        0.27040
H         -1.60360       -2.65590        0.57760
H         -0.95370       -0.74460        1.73030
