17
gdb 13078	4.28335	1.27142	1.05796	5.6421	68.66	-0.2625	0.0331	0.2955	1106.6807	0.141823	-363.860723	-363.852383	-363.851438	-363.894813	29.209
C         -0.24220        1.55050       -0.09070
C         -0.00240        0.04760       -0.03400
C          1.26450       -0.49010       -0.73850
O          1.79550       -1.00510        0.50170
C          0.63400       -0.58590        1.23720
C          0.99510        0.33090        2.41330
C          1.70570       -0.38710        3.46900
N          2.25530       -0.96170        4.30720
H          0.65730        2.12100        0.16230
H         -0.54060        1.84590       -1.10180
H         -1.04330        1.85860        0.58950
H         -0.91180       -0.47990       -0.33210
H          1.10120       -1.28590       -1.47450
H          1.92110        0.27190       -1.17760
H          0.07830       -1.45090        1.62210
H          1.62120        1.15850        2.06670
H          0.08050        0.76130        2.83850
