11
gdb 5366	5.91492	1.65864	1.29539	2.3623	58.27	-0.2742	-0.1052	0.169	840.17	0.074031	-393.627037	-393.620922	-393.619978	-393.657763	21.18
O         -0.07660       -0.00700       -0.00320
C          0.00520        1.19030        0.00560
C          1.31300        1.94790       -0.00200
N          2.45800        1.26370       -0.02010
C          3.54810        2.02830       -0.02540
N          3.56960        3.36380       -0.01430
C          2.36340        3.93020        0.00340
N          1.19970        3.27940        0.01030
H         -0.87510        1.86410        0.02060
H          4.50900        1.51920       -0.04030
H          2.32520        5.01710        0.01300
