14
gdb 3726	6.97654	1.88583	1.6273	2.8569	58.67	-0.2611	-0.0058	0.2552	767.4371	0.114278	-324.579943	-324.573481	-324.572537	-324.610824	23.126
C          0.29290        1.43680        0.29420
C         -0.22860        0.07820       -0.20110
C          0.59290       -0.48920       -1.31940
N          0.07290       -0.62740       -2.51710
O          1.08320       -1.16050       -3.31690
C          2.18150       -1.32550       -2.56820
C          1.95380       -0.92420       -1.29410
H          1.32080        1.36050        0.66250
H          0.27980        2.17610       -0.51190
H         -0.32970        1.81160        1.11180
H         -0.23900       -0.63550        0.63150
H         -1.25950        0.17520       -0.55330
H          3.03960       -1.73800       -3.07650
H          2.63690       -0.93550       -0.46120
