17
gdb 6259	4.21275	1.06968	0.94792	3.6157	70.11	-0.2952	-0.0851	0.2101	1241.6736	0.139462	-363.895049	-363.885828	-363.884884	-363.929465	32.138
C         -0.02490        1.51140       -0.02050
C          0.04660       -0.01400        0.12610
C          0.70550       -0.41450        1.45370
C         -1.35580       -0.62430       -0.01360
C         -1.37590       -2.11950       -0.22830
O         -0.41260       -2.82590       -0.38600
C         -2.73590       -2.71240       -0.26180
N         -3.80170       -3.16040       -0.28440
H          0.97330        1.95360        0.05430
H         -0.45060        1.80510       -0.98580
H         -0.64370        1.95680        0.76760
H          0.65850       -0.41440       -0.69100
H          0.79580       -1.49950        1.54520
H          1.71000        0.01290        1.52840
H          0.12390       -0.04300        2.30620
H         -1.98360       -0.39970        0.86090
H         -1.89760       -0.18670       -0.86590
