16
gdb 20006	4.31441	1.34211	1.16989	4.1889	66.17	-0.246	-0.0305	0.2155	1023.1138	0.131031	-379.869154	-379.861545	-379.860601	-379.901601	27.51
O         -0.20900        0.16990        0.52450
C          0.33960        0.72410       -0.39530
C          1.36010        1.79410       -0.19860
N          2.34770        1.97790       -1.28620
C          1.39070        3.04450       -1.03890
C          0.40680        3.33620       -2.13530
C          0.91060        3.78690       -3.45770
N          0.31620        2.44900       -3.29950
H          0.11390        0.47520       -1.45220
H          1.69320        1.89180        0.83170
H          3.26370        2.18600       -0.90090
H          1.73610        3.92620       -0.49920
H         -0.55100        3.71850       -1.78800
H          0.33030        4.48700       -4.05160
H          1.98780        3.85570       -3.58820
H          1.07700        1.77350       -3.23020
