15
gdb 7760	3.35169	2.07763	1.47015	4.356	63.39	-0.2264	0.0007	0.2271	851.4225	0.120025	-399.855819	-399.848596	-399.847652	-399.887555	26.923
C          0.43080        1.34870       -0.19540
C         -0.17100       -0.01930        0.13500
O         -0.04820       -0.88420       -1.02910
C          0.99580       -1.72000       -1.20690
O          1.21790       -2.23180       -2.27320
N          1.75720       -1.97570       -0.07800
C          1.37450       -1.57380        1.20000
C          0.42870       -0.65160        1.35690
H          1.51330        1.27070       -0.33280
H         -0.01550        1.74850       -1.11010
H          0.23990        2.04880        0.62410
H         -1.25430        0.08850        0.25460
H          2.44950       -2.69510       -0.20480
H          1.88690       -2.06610        2.01760
H          0.10300       -0.33050        2.33680
