18
gdb 6459	3.56469	1.40805	1.2533	3.0958	68.32	-0.2386	-0.0164	0.2222	1023.0107	0.151322	-384.947906	-384.939262	-384.938317	-384.981124	32.083
C         -0.34290        1.69920        0.03610
C          0.01120        0.21580        0.03680
C         -1.21840       -0.65560       -0.20210
O         -1.73000       -0.35880       -1.49190
C          1.19130       -0.20460       -0.90620
C          1.83950       -0.90810        0.29240
O          2.74770       -1.67750        0.41600
C          0.82350       -0.29900        1.27300
H          0.54980        2.31710        0.17880
H         -0.81020        1.98220       -0.91070
H         -1.04630        1.93560        0.84310
H         -0.93830       -1.71930       -0.12410
H         -1.96610       -0.45460        0.58290
H         -2.49890       -0.91400       -1.65020
H          0.94050       -0.82740       -1.76830
H          1.79490        0.64060       -1.25450
H          1.26570        0.50890        1.86600
H          0.33100       -0.99800        1.95600
