15
gdb 14494	3.63349	2.07152	1.55137	5.1126	65.52	-0.2638	0.0206	0.2843	820.8687	0.118354	-362.601653	-362.594594	-362.59365	-362.632668	26.844
C         -0.17090        1.59300       -0.01530
C          0.00730        0.07500        0.00810
C         -1.27940       -0.58630       -0.21230
N         -2.33340       -1.02490       -0.39230
C          1.21020       -0.64610       -0.70030
C          2.18530       -0.11350        0.37520
C          0.91180       -0.65390        1.06600
O          0.96510       -1.82070        0.16150
H          0.76840        2.12290        0.14610
H         -0.58210        1.90870       -0.97840
H         -0.87660        1.90090        0.76150
H          1.35740       -0.81980       -1.76580
H          3.06200       -0.74340        0.52060
H          2.42040        0.94970        0.41970
H          0.70100       -0.83710        2.11920
