15
gdb 3253	6.222	2.3168	2.12314	2.2516	60.92	-0.2246	0.0704	0.295	656.1917	0.126704	-304.614169	-304.608359	-304.607415	-304.643505	22.879
C         -0.06360        1.51810       -0.03430
N          1.19270        0.73890        0.05700
C         -0.08260        0.03990       -0.00460
C         -0.50340       -0.99350        1.04480
N         -0.85550       -1.99480       -0.03300
C         -1.91500       -1.36010       -0.83570
C         -0.51790       -0.93640       -1.07150
H         -0.30770        2.08840        0.85800
H         -0.30930        2.01310       -0.97100
H          1.65750        0.71360       -0.84820
H          0.34040       -1.35340        1.63660
H         -1.34240       -0.74610        1.70390
H         -2.36690       -2.03830       -1.55350
H         -2.61040       -0.67600       -0.35290
H          0.03230       -1.17430       -1.97790
