16
gdb 9236	6.13596	0.78313	0.71438	1.4974	83.13	-0.2418	-0.0109	0.2309	1519.6357	0.127521	-346.5491	-346.539676	-346.538732	-346.583339	33.283
C          0.01630        1.57110       -0.00750
C         -0.00460        0.02980        0.04690
C          0.75840       -0.50550        1.27290
O          2.10520       -0.08160        1.14890
C         -1.36480       -0.49350        0.03530
C         -2.49640       -0.92420        0.03510
C         -3.76960       -1.40490        0.03680
C         -4.89900       -1.83280        0.03820
H          1.05000        1.92110        0.01490
H         -0.46620        1.93320       -0.91840
H         -0.51650        1.99180        0.85090
H          0.52210       -0.35370       -0.83830
H          0.29000       -0.11300        2.18850
H          0.68000       -1.60190        1.29850
H          2.58590       -0.36610        1.93130
H         -5.89230       -2.20700        0.03920
