15
gdb 12324	3.169	2.33413	1.41486	1.0787	65.89	-0.2324	-0.0303	0.2022	847.092	0.121696	-396.007666	-396.00072	-395.999776	-396.038641	26.797
N          0.02380        1.31290       -0.24810
C         -0.04510       -0.04040       -0.07900
N         -1.16080       -0.65770        0.04630
C         -1.09270       -2.10630        0.14640
C          0.09840       -2.67720       -0.59980
O          1.31940       -2.05690       -0.14960
C          1.30160       -0.71320       -0.03490
N          2.34560       -0.02140        0.17230
H          0.91520        1.73140       -0.02790
H         -0.81140        1.82890       -0.02140
H         -1.05530       -2.40980        1.20350
H         -2.01310       -2.53570       -0.26680
H          0.23370       -3.74690       -0.42540
H         -0.00660       -2.50370       -1.67850
H          3.17380       -0.61790        0.21140
