11
gdb 2497	3.10726	2.34286	1.41204	3.4189	55.07	-0.2617	-0.0704	0.1912	791.1688	0.07418	-343.224836	-343.217202	-343.216258	-343.257886	24.978
O         -0.01820        0.00770       -0.32560
C          0.02450        1.14720        0.03890
C          1.33170        1.97620        0.06430
C          1.39160        2.82230       -1.23050
O          2.00240        2.48410       -2.20300
C          1.36520        2.83550        1.23480
C          1.34400        3.57200        2.18430
H         -0.87200        1.70260        0.38370
H          2.16370        1.26820        0.02600
H          0.81460        3.76870       -1.18160
H          1.34790        4.21140        3.03290
