17
gdb 7068	2.10081	1.86531	1.04548	3.3572	72.25	-0.2532	0.0281	0.2813	1120.299	0.139226	-363.830593	-363.82133	-363.820385	-363.86507	32.622
C          0.07750        1.76000        0.10890
C         -0.04130        0.25050       -0.05860
C          0.56290       -0.51140        1.14070
C          0.60690       -1.95460        0.94740
C          0.64460       -3.14150        0.76190
O         -1.43280       -0.05490       -0.17190
C         -1.80940       -1.01830       -1.03790
N         -3.02470       -1.34830       -1.11870
H          1.12730        2.05870        0.17990
H         -0.37460        2.27090       -0.74450
H         -0.44080        2.08620        1.01560
H          0.47500       -0.06590       -0.97480
H          1.57660       -0.13200        1.31960
H         -0.02970       -0.26780        2.03080
H          0.67360       -4.19300        0.61610
H         -0.97750       -1.42970       -1.62350
H         -3.13850       -2.06940       -1.82780
