20
gdb 8411	3.32727	1.65268	1.48015	1.2169	75.66	-0.2417	0.0742	0.316	971.1997	0.175779	-348.981307	-348.972772	-348.971828	-349.013908	32.836
C         -0.13110        1.51480        0.17690
C         -0.00750        0.01050        0.09580
O         -1.21300       -0.64710       -0.20780
C          1.27390       -0.62160       -0.40700
C          0.87270       -0.75020        1.04260
C          1.56580       -0.20270        2.29940
C          0.86460       -1.32650        3.11950
C          0.44310       -2.01970        1.78970
H          0.81850        1.98050        0.45380
H         -0.43280        1.93150       -0.79230
H         -0.88710        1.80150        0.91570
H         -1.43220       -0.45350       -1.12590
H          1.17930       -1.50860       -1.02650
H          2.10860        0.02670       -0.65980
H          2.65380       -0.31920        2.26410
H          1.33960        0.82840        2.58500
H          1.50020       -1.90470        3.79360
H          0.00710       -0.95540        3.68630
H         -0.60640       -2.30070        1.68590
H          1.06520       -2.88690        1.54620
