17
gdb 3470	4.83913	2.43126	2.3727	1.4944	62.86	-0.2436	0.0733	0.3169	659.6308	0.150865	-309.703111	-309.697057	-309.696113	-309.732553	24.476
O          0.21720        1.36660       -0.18110
C          0.06520       -0.02480       -0.04210
C          0.15270       -0.62880        1.39820
C         -1.35110       -0.24290        1.54610
C         -1.38890       -0.59730        0.02780
C         -1.11140       -2.11060        0.05120
C          0.06250       -2.13460        1.09470
H         -0.34440        1.81210        0.46100
H          0.72670       -0.46250       -0.79630
H          0.91240       -0.29540        2.10630
H         -1.96880       -0.83590        2.22730
H         -1.51770        0.81670        1.75790
H         -2.17310       -0.23240       -0.63660
H         -1.97930       -2.68810        0.38120
H         -0.80860       -2.49220       -0.92840
H          0.99100       -2.52900        0.67140
H         -0.17690       -2.72500        1.98350
