13
gdb 12660	3.49649	2.03931	1.33576	2.7723	56.63	-0.27	-0.0827	0.1873	847.633	0.09559	-435.752156	-435.745112	-435.744168	-435.783623	25.619
O          0.22340        1.28670        0.43130
C          0.00080       -0.03360        0.03830
C         -1.47420       -0.39740       -0.17640
O         -1.45730       -1.47080       -1.15140
C         -0.33970       -1.40570       -1.92970
N         -0.08800       -2.10010       -2.95120
C          0.57310       -0.35730       -1.33450
O          1.51440        0.19500       -1.83650
H          0.98850        1.59610       -0.07600
H          0.44270       -0.75360        0.75090
H         -1.98340       -0.77400        0.71050
H         -2.01860        0.46430       -0.57750
H         -0.85790       -2.74080       -3.15910
