22
gdb 12015	3.74174	1.2294	1.17532	0.1161	83.3	-0.2401	0.0897	0.3298	1178.1239	0.199274	-313.05194	-313.042895	-313.041951	-313.085521	34.516
C         -0.10330        1.54320       -0.06350
C         -0.00270        0.03110        0.01110
C         -1.23360       -0.68630       -0.51270
C          1.34190       -0.61940       -0.23310
C          0.74190       -0.62790        1.15760
C          1.37070        0.12870        2.28540
C          0.72410        0.13640        3.65030
C          2.01170       -0.61900        3.43040
H          0.80890        2.03890        0.27770
H         -0.28470        1.86520       -1.09590
H         -0.93340        1.91580        0.54850
H         -1.41930       -0.43600       -1.56450
H         -1.12370       -1.77340       -0.44490
H         -2.12800       -0.40510        0.05640
H          1.37970       -1.54940       -0.79150
H          2.19490        0.03130       -0.40230
H          0.32220       -1.58160        1.47400
H          1.87040        1.04890        1.99810
H          0.75350        1.05020        4.23380
H         -0.18560       -0.44140        3.77870
H          1.96730       -1.70330        3.41220
H          2.92380       -0.22140        3.86170
