16
gdb 9656	3.37286	1.32403	1.27932	3.3283	66.08	-0.2736	0.0202	0.2938	1020.8021	0.13042	-379.908512	-379.899886	-379.898942	-379.942392	30.985
N         -0.30640        1.37350       -0.32820
C         -0.12660       -0.02900       -0.03200
C         -0.29030       -0.45520        1.41640
C         -1.34750       -0.83420        0.42260
C         -2.70910       -0.17590        0.47720
O         -3.36350       -0.16270       -0.77970
C          0.86610       -0.73380       -0.81690
N          1.66080       -1.25770       -1.47570
H          0.49710        1.90860       -0.01120
H         -0.37190        1.51720       -1.33180
H          0.37770       -1.21650        1.80010
H         -0.51880        0.35070        2.10600
H         -1.35830       -1.86690        0.08850
H         -3.35370       -0.75650        1.14610
H         -2.61510        0.83400        0.89470
H         -2.91360        0.48600       -1.32990
