18
gdb 13561	2.85279	1.48839	1.11394	1.2857	68.83	-0.25	-0.0291	0.221	1100.0618	0.150585	-384.933444	-384.924221	-384.923276	-384.968389	32.027
C         -0.29500        1.38300        0.21070
C          0.09970       -0.05080       -0.19550
C          0.87130       -0.01850       -1.50230
O          0.50800       -0.52230       -2.53280
C          0.96250       -0.67820        0.88720
O          0.31540       -1.00300        2.11870
C          0.87010       -2.07640        1.34180
C         -0.08160       -3.10870        0.79600
H          0.58730        2.02660        0.30220
H         -0.96760        1.82950       -0.52680
H         -0.79990        1.36150        1.17970
H         -0.79870       -0.64880       -0.36060
H          1.83640        0.54090       -1.44790
H          1.92570       -0.17720        1.02160
H          1.77800       -2.49520        1.78160
H         -0.98680       -2.65670        0.38670
H          0.40380       -3.69450        0.00830
H         -0.37950       -3.79880        1.59210
