12
gdb 1440	9.46544	1.40475	1.24209	5.3249	51.37	-0.297	-0.0094	0.2877	893.6806	0.088598	-360.556344	-360.548709	-360.547764	-360.589378	24.617
C          0.08870        1.37200        0.00780
O         -0.04940       -0.05900        0.00140
C         -1.31270       -0.51230        0.01210
O         -2.29510        0.17520        0.02610
C         -1.28710       -2.04140        0.00390
C         -2.61680       -2.63760        0.01260
N         -3.65430       -3.14300        0.01920
H          1.16110        1.56360       -0.00200
H         -0.38860        1.80490       -0.87430
H         -0.37080        1.79520        0.90390
H         -0.73180       -2.37840       -0.87810
H         -0.71640       -2.38730        0.87260
