18
gdb 19793	2.83591	2.63736	1.80593	1.4751	69.43	-0.2429	0.0683	0.3111	792.7258	0.155842	-347.775863	-347.769133	-347.768189	-347.806345	27.639
O         -0.16520        1.45570        0.16890
C         -0.00590        0.04430        0.03920
C          0.74870       -0.61610        1.20610
C          0.26720       -0.34610        2.61110
C         -0.18790       -1.58910        1.88870
C         -1.50270       -1.59430        1.12500
C         -2.36240       -0.35560        1.08750
C         -1.38380       -0.62120       -0.02790
H          0.70640        1.83260        0.32590
H          0.53470       -0.18160       -0.89250
H          1.79790       -0.85030        1.05720
H          0.98980       -0.47760        3.41010
H         -0.42420        0.47040        2.77920
H          0.17090       -2.54580        2.25140
H         -1.98750       -2.55550        0.99660
H         -3.41320       -0.49310        0.85420
H         -2.17320        0.46420        1.76850
H         -1.77840       -0.85130       -1.01100
