20
gdb 13217	3.91014	1.31441	1.06756	1.3934	71.57	-0.2418	0.0809	0.3227	1157.3487	0.175469	-386.112665	-386.103446	-386.102501	-386.147271	32.321
C          0.12010        1.42640        0.08880
O         -0.07140        0.03680       -0.03500
C          0.56370       -0.55610       -1.15830
C          2.08210       -0.66000       -1.01280
C         -0.07530       -1.93360       -1.29290
C         -1.53470       -1.99340       -1.78610
C         -0.95000       -2.78380       -2.97380
O          0.39600       -2.63190       -2.46930
H          1.16420        1.69200        0.30750
H         -0.18700        1.96210       -0.82350
H         -0.50350        1.76410        0.92060
H          0.32330        0.02320       -2.06710
H          2.33780       -1.17050       -0.07850
H          2.48690       -1.23550       -1.84970
H          2.56070        0.32320       -1.01220
H          0.12260       -2.51070       -0.37910
H         -2.23090       -2.53760       -1.14740
H         -1.96280       -1.02080       -2.03490
H         -1.24490       -3.83910       -3.02810
H         -1.06700       -2.33350       -3.96670
