18
gdb 6150	4.91296	1.11173	1.06636	3.4253	69.62	-0.2457	-0.0209	0.2248	1141.7052	0.15147	-384.943961	-384.935398	-384.934453	-384.977068	31.762
C         -0.25170        1.53130       -0.04280
C         -0.01780        0.02500       -0.01780
O         -1.22850       -0.68580       -0.17680
C          1.18100       -0.43500       -0.90550
C          2.07910       -0.46450        0.37160
C          0.76910       -0.46880        1.21980
C          2.97820       -1.65700        0.52290
O          4.16340       -1.61780        0.73210
H          0.67570        2.08590        0.12960
H         -0.64510        1.84530       -1.01810
H         -0.97370        1.81490        0.72920
H         -1.72700       -0.28370       -0.89650
H          0.99560       -1.44420       -1.28520
H          1.50360        0.21050       -1.72610
H          2.66780        0.44580        0.49840
H          0.75080        0.14710        2.12150
H          0.45960       -1.48770        1.47070
H          2.44420       -2.63350        0.41950
