11
gdb 3844	6.05382	2.81934	1.92353	0.6776	56.73	-0.2393	-0.0749	0.1644	604.4605	0.081083	-335.591582	-335.586275	-335.585331	-335.620621	19.86
N         -0.06540        1.37780        0.01080
C         -0.03380        0.09970        0.00360
N          1.12520       -0.69990       -0.00760
N          1.21570       -2.04540       -0.01550
N          0.15330       -2.73690       -0.01300
C         -1.07460       -2.07810       -0.00220
C         -1.21570       -0.73830        0.00590
H          0.87010        1.78770        0.00750
H          2.03330       -0.25550       -0.01050
H         -1.92600       -2.74870       -0.00090
H         -2.18130       -0.24850        0.01430
