24
gdb 9421	3.76117	0.83774	0.71955	1.0314	83.09	-0.2475	0.0865	0.334	1682.3476	0.22094	-351.411601	-351.400711	-351.399767	-351.448161	38.209
C          0.08780        1.57670        0.01070
C          0.03210        0.04670        0.03310
C         -1.39710       -0.50340       -0.01320
C         -1.45820       -2.03350        0.00610
C         -2.88140       -2.59420       -0.00490
C         -2.89570       -4.12250       -0.10560
O         -3.51100       -2.14120        1.19020
C         -4.91710       -2.18250        1.17340
H          1.11910        1.94170        0.04750
H         -0.37430        1.97630       -0.89910
H         -0.44780        2.00370        0.86590
H          0.60510       -0.35290       -0.81470
H          0.53310       -0.32470        0.93710
H         -1.97110       -0.11720        0.83640
H         -1.89870       -0.13120       -0.91820
H         -0.91850       -2.44040       -0.85870
H         -0.94900       -2.41430        0.90140
H         -3.42300       -2.17320       -0.87100
H         -3.91500       -4.51920       -0.10930
H         -2.41020       -4.45030       -1.03040
H         -2.36050       -4.56270        0.74180
H         -5.26430       -1.72540        2.10390
H         -5.33150       -1.61410        0.32540
H         -5.31400       -3.20730        1.12380
