17
gdb 14326	4.32022	1.76148	1.49823	3.7997	67.95	-0.2383	0.0383	0.2766	869.253	0.145161	-363.904727	-363.898058	-363.897114	-363.935736	26.143
O         -0.27130       -0.01230        0.27150
C         -0.20680        1.17920        0.06680
C         -1.30750        2.08620       -0.50550
C         -0.77870        3.50440       -0.30970
C         -0.96400        4.15770        1.09450
C          0.57740        4.31380        1.22060
C          0.75400        3.37750       -0.00680
N          0.89010        1.97230        0.29690
H         -1.45220        1.82550       -1.55960
H         -2.25180        1.89100        0.00930
H         -1.01470        4.18260       -1.13010
H         -1.54950        5.07870        1.12470
H         -1.38590        3.46030        1.82320
H          0.91550        5.33010        1.00020
H          1.04150        3.98340        2.15290
H          1.47130        3.70080       -0.76850
H          1.73590        1.56010        0.65900
