21
gdb 17347	4.08397	1.26754	1.07622	1.3649	80.06	-0.2155	0.0858	0.3013	1179.7092	0.188037	-329.08102	-329.07211	-329.071165	-329.114943	33.112
C         -1.65150       -0.14020        2.28890
C         -0.87240       -1.43170        2.15950
C          0.03220       -1.68580        0.98100
C          0.62860       -1.52330        2.36490
C          1.45680       -0.32250        2.70050
C          2.23850       -0.25650        3.97090
N          2.92490       -0.33510        2.68660
C          3.63560       -1.56540        2.37320
H         -1.12050        0.70760        1.84710
H         -2.61500       -0.22210        1.77380
H         -1.85450        0.10390        3.33760
H         -1.41840       -2.30060        2.51900
H          0.04370       -2.66710        0.51920
H          0.17720       -0.86590        0.28340
H          0.95810       -2.44160        2.84060
H          1.05970        0.61320        2.31190
H          2.34690        0.67500        4.52170
H          2.22780       -1.15070        4.59540
H          3.21000       -2.47450        2.82630
H          3.66020       -1.70500        1.28770
H          4.66780       -1.47030        2.72600
