15
gdb 811	4.70096	2.01823	1.50599	1.1445	61.33	-0.2291	0.004	0.2331	807.1883	0.124472	-341.767606	-341.760258	-341.759314	-341.798909	26.634
C          0.06030        1.57490       -0.02190
C          0.01590        0.05810        0.07970
N          0.94080       -0.67210       -0.84920
C          1.48060       -1.51360        0.25910
C          0.74260       -0.61760        1.22720
N          0.71830       -0.39870        2.47070
O          1.59570       -1.26290        3.15290
H          1.09190        1.93020        0.04160
H         -0.36110        1.90710       -0.97620
H         -0.51920        2.02770        0.78860
H         -1.02570       -0.29220        0.01270
H          0.46120       -1.20290       -1.56730
H          1.12830       -2.55410        0.28390
H          2.57340       -1.51750        0.33340
H          1.48910       -0.97990        4.06740
