12
gdb 4381	3.92085	2.03874	1.3413	2.4027	58.71	-0.2486	-0.0273	0.2213	823.7481	0.086941	-414.740464	-414.734501	-414.733557	-414.770508	23.067
O          0.12810        1.30150        0.03170
C          0.08620       -0.03780        0.03600
N          0.14770       -0.66090       -1.13600
C          0.10320       -1.99810       -1.09170
O          0.16420       -2.63930       -2.26670
N          0.00500       -2.76820       -0.01650
C         -0.05450       -2.10400        1.14410
C         -0.01880       -0.72440        1.24830
H          0.20050        1.57360       -0.89440
H          0.23240       -1.95890       -2.94950
H         -0.13520       -2.71830        2.03770
H         -0.06770       -0.20130        2.19260
