15
gdb 4503	3.66294	1.81164	1.23163	1.223	65.66	-0.1895	0.0265	0.216	954.9415	0.119834	-396.016535	-396.008445	-396.007501	-396.048743	29.318
C          0.02150        1.43020        0.07980
C         -0.00290       -0.04820       -0.05600
N          0.00670       -0.77400       -1.12250
C          0.00830       -2.09630       -0.66540
N          0.02710       -3.25600       -1.47270
C         -0.01260       -2.08060        0.69250
N         -0.11400       -3.07110        1.65440
O         -0.02740       -0.78390        1.10700
H          0.91130        1.76740        0.62340
H          0.02780        1.87360       -0.91640
H         -0.85440        1.79590        0.62660
H         -0.84100       -3.35420       -1.99310
H          0.76740       -3.19440       -2.16620
H          0.02700       -3.97750        1.22320
H          0.52620       -2.94360        2.43010
