13
gdb 9584	4.6924	1.29613	1.20604	1.7829	60.58	-0.2813	-0.066	0.2153	974.174	0.092602	-398.59676	-398.588733	-398.587789	-398.629475	27.66
C         -0.02400        1.61230       -0.04420
C         -0.02330        0.11010        0.01230
O          1.21620       -0.57950       -0.21680
C          0.66830       -0.66120        1.08940
C          1.36570        0.03380        2.14860
N          1.90770        0.57540        3.01370
C         -1.19510       -0.60840       -0.60850
O         -2.20380       -0.05790       -0.95810
H          0.82370        2.02840        0.50200
H          0.02610        1.94190       -1.08550
H         -0.95440        1.99600        0.38150
H          0.28950       -1.64230        1.37370
H         -1.03360       -1.70260       -0.72480
