15
gdb 16360	2.56005	2.40011	1.45001	5.2581	61.76	-0.2606	-0.0017	0.2589	867.4679	0.118739	-399.796091	-399.788752	-399.787807	-399.827689	26.995
C         -0.27840        1.49480        0.03050
C          0.11180        0.03430        0.00360
O          1.36910       -0.19040       -0.72960
C          1.97800       -0.79520        0.35180
O          3.07270       -1.24930        0.41580
C          0.77090       -0.58980        1.23720
C          0.69420       -0.20740        2.66670
N          0.26500       -1.53920        2.21740
H          0.52080        2.10290        0.46290
H         -0.48240        1.85520       -0.98180
H         -1.18650        1.63370        0.62710
H         -0.67210       -0.59040       -0.43800
H          1.60120       -0.19810        3.26350
H         -0.05640        0.52720        2.94750
H         -0.75000       -1.58990        2.15860
