16
gdb 19204	2.7545	2.71193	2.67684	1.1684	63.68	-0.2445	-0.0001	0.2444	685.622	0.133537	-383.731391	-383.725537	-383.724593	-383.760985	23.999
C         -0.00800        1.53880        0.01660
O          1.33250        2.03300        0.02960
C          2.29000        0.95580        0.02190
C          2.02080        0.10790        1.27830
O          0.69440       -0.41850        1.20600
C          0.02800       -0.00010       -0.00160
C          0.83230       -0.43240       -1.20330
C          2.06310        0.08110       -1.18690
H         -0.52190        1.88080        0.92410
H         -0.53680        1.93240       -0.86170
H          3.27470        1.42310        0.05630
H          2.74040       -0.71760        1.36000
H          2.10360        0.74160        2.17050
H         -0.97510       -0.42580        0.04080
H          0.42580       -1.07730       -1.97350
H          2.83200       -0.09450       -1.93010
