17
gdb 19171	3.38537	1.94903	1.4754	2.1332	70.15	-0.2442	0.0041	0.2483	894.8517	0.141213	-363.804544	-363.796901	-363.795957	-363.836079	29.002
C         -0.05570        1.57170       -0.00210
C         -0.00260        0.05300       -0.04080
C          1.22960       -0.64570       -0.70010
N          2.02090       -0.21620        0.52760
C          3.25510       -0.93400        0.85460
C          0.70920       -0.71020        1.12190
C          0.86500       -1.89890        0.13780
O          0.93850       -3.08770        0.11670
H          0.90730        1.99300        0.28790
H         -0.33070        1.96810       -0.98520
H         -0.81540        1.90790        0.71130
H         -0.96260       -0.38300       -0.33040
H          1.62580       -0.53890       -1.70890
H          4.03950       -0.59730        0.17020
H          3.55390       -0.65760        1.87030
H          3.18590       -2.03070        0.79600
H          0.51160       -0.67720        2.19240
