15
gdb 4002	3.18402	1.18402	0.87243	1.0207	73.63	-0.2235	-0.0215	0.202	1277.0373	0.11518	-399.723392	-399.713649	-399.712704	-399.760664	32.41
C         -0.19010        1.26600       -0.43880
C         -0.03360       -0.15980       -0.20750
C          0.09680       -1.34320       -0.01650
C          0.22500       -2.73980        0.20430
C         -0.98030       -3.64880        0.06380
O         -2.11230       -2.88520       -0.29070
N          1.39010       -3.18840        0.52280
O          1.34750       -4.57740        0.70470
H          0.74870        1.80210       -0.26290
H         -0.50250        1.46660       -1.46980
H         -0.94980        1.69260        0.22580
H         -0.73880       -4.41640       -0.68790
H         -1.11470       -4.18150        1.01810
H         -2.85710       -3.48760       -0.37210
H          2.26050       -4.77970        0.93380
