13
gdb 10368	2.4506	2.28912	1.4403	4.281	64.47	-0.2846	-0.0258	0.2588	866.5745	0.093983	-361.406882	-361.39925	-361.398306	-361.439228	27.14
C         -0.22300       -1.30750       -0.16370
C         -0.11430       -0.11530       -0.07250
C          0.01860        1.32720        0.07620
C         -0.18710        1.90370        1.51790
C          1.26040        2.40490        1.37150
O          1.39310        1.77880        0.06980
C         -0.77050        2.02660       -0.95680
N         -1.39380        2.60160       -1.74130
H         -0.31750       -2.36190       -0.25840
H         -0.96280        2.66360        1.59900
H         -0.34150        1.12560        2.26350
H          1.37750        3.49130        1.30660
H          1.98530        2.00030        2.08390
