20
gdb 17104	4.36852	1.48726	1.40983	0.2491	80.6	-0.2122	0.0237	0.2359	1000.0382	0.178784	-311.844999	-311.837644	-311.8367	-311.876683	29.138
C         -0.23520        1.51160       -0.10330
C          0.14980        0.02460        0.00440
C          0.81000       -0.50510       -1.22460
C          2.04390       -0.97570       -1.44020
C          2.04020       -1.34590       -2.93060
C          1.31250       -0.09300       -3.52880
C          0.15520       -0.62930       -2.61830
C          0.64720       -2.05770       -3.03590
H          0.65200        2.13250       -0.26160
H         -0.91750        1.68540       -0.94170
H         -0.73320        1.85290        0.80960
H          0.81540       -0.12090        0.86320
H         -0.75930       -0.55740        0.21430
H          2.86810       -1.09000       -0.74930
H          2.94560       -1.76280       -3.37100
H          1.72660        0.89000       -3.29160
H          1.09940       -0.18020       -4.59960
H         -0.88070       -0.30970       -2.73740
H          0.37060       -2.33060       -4.05990
H          0.44960       -2.88130       -2.34540
