18
gdb 16245	3.03181	2.04324	1.55432	1.6502	66.76	-0.2534	0.0807	0.3341	880.5212	0.153862	-384.922828	-384.915175	-384.914231	-384.95498	28.701
C          0.22620        1.65580       -0.12760
C          0.01060        0.14830        0.05690
C          0.64830       -0.66360       -1.08350
O          2.02830       -0.75320       -0.73670
C          2.10360       -0.95360        0.66840
C          0.78770       -0.42070        1.24440
C          0.59050       -0.03760        2.64310
O          0.09140       -1.28530        2.14890
H          1.28520        1.87830       -0.29120
H         -0.33100        2.02150       -0.99600
H         -0.10920        2.21990        0.74790
H         -1.05210       -0.07740        0.17890
H          0.19510       -1.66540       -1.15160
H          0.58410       -0.18180       -2.06270
H          2.19430       -2.02000        0.92300
H          2.98880       -0.42730        1.03940
H          1.41880       -0.11110        3.34790
H         -0.16780        0.70010        2.90480
