20
gdb 11137	6.41972	0.91529	0.86402	1.6861	72.53	-0.2444	0.076	0.3204	1365.0142	0.175883	-386.113523	-386.104401	-386.103457	-386.147729	32.7
C          0.14020        1.26640        0.20730
O         -0.30600        0.00660       -0.23920
C          0.50140       -0.54330       -1.24460
C          1.87660       -1.16400       -0.85520
C          1.53880       -2.35240       -1.79850
C          1.90850       -3.74810       -1.34430
O          1.39280       -4.66890       -2.29550
C          0.04510       -1.92680       -1.74270
H          1.14390        1.21450        0.65620
H          0.16950        2.00190       -0.61260
H         -0.56530        1.61310        0.96640
H          0.61840        0.17250       -2.07430
H          2.78720       -0.59290       -1.05000
H          1.86000       -1.47270        0.19570
H          1.95010       -2.18750       -2.79950
H          3.00500       -3.83340       -1.25790
H          1.48600       -3.93080       -0.34220
H          1.59140       -5.55950       -1.99220
H         -0.48570       -2.45090       -0.94190
H         -0.54700       -1.97650       -2.65770
