18
gdb 6440	3.88192	1.45763	1.28332	1.646	74.3	-0.2501	0.0338	0.2839	1026.6932	0.150968	-347.763768	-347.755039	-347.754095	-347.796806	32.654
C          0.36740        1.63210        0.03260
C         -0.01060        0.16900       -0.05860
C          0.50690       -0.66580       -1.24720
C          1.10120       -1.60540       -0.15680
C          2.60910       -1.82990       -0.18060
O          0.72750       -0.65380        0.88190
C          0.37830       -2.86860       -0.00720
C         -0.21120       -3.91010        0.10730
H          1.43790        1.77050       -0.14790
H         -0.19140        2.21810       -0.70550
H          0.13350        2.02520        1.02710
H         -1.09060        0.04590        0.10260
H         -0.24000       -1.10600       -1.90680
H          1.27670       -0.16530       -1.83950
H          3.12480       -0.87240       -0.29120
H          2.93420       -2.29820        0.75250
H          2.88540       -2.48580       -1.01180
H         -0.73460       -4.82780        0.21640
