11
gdb 21367	5.71102	2.37621	1.67803	6.9887	56.62	-0.2434	-0.016	0.2275	677.707	0.075763	-389.744309	-389.739047	-389.738103	-389.773489	20.266
N         -0.02140        1.35810        0.01000
C          1.30150        1.79530       -0.00060
C          2.12950        0.71550       -0.01450
N          1.28930       -0.39140       -0.01240
N          1.31890       -1.75170       -0.02000
N          0.06630       -2.10810       -0.01010
N         -0.80170       -1.05860        0.00440
C         -0.00630       -0.00450        0.00240
H         -0.84280        1.93550        0.02130
H          1.54380        2.84470        0.00280
H          3.20160        0.64220       -0.02540
