15
gdb 13579	4.33799	1.32684	1.24292	1.7163	72.06	-0.2366	-0.0681	0.1685	1010.5997	0.116554	-362.603532	-362.595311	-362.594366	-362.636419	29.527
C         -0.75360        1.07200        0.36690
N          0.02540       -0.14840        0.17090
C          1.27330       -0.06660       -0.54170
C          1.27290       -0.37190        0.93140
C          1.82450        0.66360        1.85900
O          1.86040        1.85430        1.60750
C          2.31920        0.14420        3.12320
C          2.73950       -0.29900        4.16070
H         -0.14940        1.97360        0.51620
H         -1.38350        1.20300       -0.51820
H         -1.40850        0.93670        1.23290
H          1.48790       -0.87320       -1.23820
H          1.64880        0.91730       -0.81800
H          1.40000       -1.39690        1.26730
H          3.11260       -0.67280        5.08340
