18
gdb 11230	4.71289	1.21743	1.02531	3.3608	76.01	-0.2359	-0.0217	0.2141	1150.9304	0.153297	-347.836972	-347.828778	-347.827834	-347.870172	29.635
C         -0.05550        1.55540        0.08060
C          0.00570        0.06140        0.03900
C         -0.23620       -0.72590       -1.01180
C         -0.02820       -2.19820       -0.71310
C          0.11980       -2.20840        0.83700
C          0.43460       -0.74910        1.24310
C         -1.20650       -3.03640       -1.17020
O         -1.16610       -3.90530       -2.00140
H          0.91890        1.98230        0.35050
H         -0.35730        1.97670       -0.88170
H         -0.76560        1.89880        0.84350
H         -0.51350       -0.37430       -2.00000
H          0.86020       -2.58940       -1.22420
H         -0.83230       -2.51420        1.28680
H          0.87440       -2.92390        1.17030
H          1.50560       -0.59690        1.43900
H         -0.08630       -0.44860        2.16010
H         -2.16350       -2.76800       -0.65990
