18
gdb 19711	3.44071	2.49886	2.44778	0.2039	73.89	-0.2357	0.0198	0.2556	709.5524	0.157852	-310.649682	-310.644146	-310.643202	-310.678748	24.727
C         -0.01900        1.52990        0.11850
C          1.29900        0.81200       -0.01770
C          0.00350        0.02840       -0.00870
C         -0.01410       -0.66940       -1.41330
C          1.50090       -1.00200       -1.54170
C          1.91100        0.49490       -1.42660
C          1.01660        1.08000       -2.50910
C         -0.12800        0.38780       -2.50120
H         -0.25080        1.92440        1.10340
H         -0.38900        2.13220       -0.70290
H          1.98080        0.79700        0.82500
H         -0.29130       -0.57720        0.84060
H         -0.71680       -1.50030       -1.47730
H          1.87670       -1.61390       -0.71500
H          1.76910       -1.45650       -2.50030
H          2.97250        0.73100       -1.50270
H          1.24880        1.96070       -3.09490
H         -1.02160        0.58750       -3.07920
