21
gdb 7440	2.78979	1.48868	1.21705	3.259	74.84	-0.2402	0.0368	0.277	1112.4652	0.186609	-366.313498	-366.303106	-366.302161	-366.349016	37.09
C          0.00010        1.53520       -0.07320
C          0.11130        0.00570       -0.02560
C          1.00900       -0.49560       -1.16700
C          0.61590       -0.51220        1.34390
C         -0.22470       -0.02200        2.53690
C          0.57490       -2.04460        1.35360
N          1.74430       -2.66600        1.68580
O         -0.44340       -2.66710        1.11400
H          0.96670        2.01070        0.13590
H         -0.31600        1.86170       -1.06940
H         -0.72740        1.92420        0.64380
H         -0.88730       -0.42550       -0.16670
H          2.03090       -0.10910       -1.06310
H          1.06040       -1.58780       -1.19310
H          0.62850       -0.15910       -2.13660
H          1.65260       -0.17220        1.48080
H          0.14160       -0.45410        3.47380
H         -0.18540        1.06520        2.63520
H         -1.26690       -0.32920        2.41250
H          2.60250       -2.16210        1.81900
H          1.76390       -3.67310        1.69580
