16
gdb 4202	4.24334	1.60547	1.55448	0.1657	68.44	-0.2293	0.0196	0.2489	875.3666	0.132802	-379.842434	-379.835706	-379.834762	-379.873241	26.363
O         -0.10020        1.37070        0.09360
N          0.06380       -0.03620        0.03040
C         -1.05090       -0.61350       -0.10980
C         -2.54270       -0.32470       -0.02870
C         -3.07590       -0.92220       -1.34490
C         -2.26280       -2.26320       -1.34290
C         -1.48860       -2.06180       -0.02580
N         -2.62110       -1.55980        0.86730
H          0.80940        1.67020        0.19590
H         -2.95220        0.61240        0.34020
H         -4.15360       -1.08800       -1.29020
H         -2.85610       -0.28800       -2.20650
H         -2.90730       -3.14260       -1.28890
H         -1.59590       -2.36180       -2.20220
H         -0.84980       -2.86040        0.34580
H         -2.20450       -1.30570        1.76460
