17
gdb 12226	2.72255	1.91908	1.65056	3.2472	64.13	-0.2324	-0.0378	0.1946	877.2097	0.141207	-400.98025	-400.971999	-400.971055	-401.013329	30.032
C          0.60650        1.48920        0.19190
C          0.04250        0.08010        0.12420
N          0.61790       -0.73490       -1.00160
C          1.33440       -1.62220       -0.03700
C          2.81220       -1.33670       -0.20850
O          3.53740       -0.84300        0.62540
C          0.60520       -0.95010        1.16150
O          1.32290       -0.52220        2.27690
H          1.70010        1.48120        0.20120
H          0.28090        2.07300       -0.67440
H          0.26430        1.99030        1.10260
H         -1.05240        0.11560        0.10280
H         -0.09040       -1.23100       -1.52980
H          1.17160       -2.69990       -0.16730
H          3.19230       -1.56980       -1.22650
H         -0.20290       -1.59520        1.52250
H          2.24120       -0.38770        1.99960
