14
gdb 14632	2.82807	1.35886	0.98053	5.4954	56.45	-0.2891	-0.0031	0.286	1120.8051	0.104722	-456.849119	-456.840547	-456.839603	-456.885625	27.463
O          1.00610        0.18750       -0.61570
C          0.83500        1.36610       -0.62440
O          1.27140        2.16790        0.37630
C          1.03380        3.56970        0.27420
C          2.35130        4.30450        0.09410
O          2.89150        4.02100       -1.19430
C          4.03200        3.29420       -1.26880
O          4.53680        3.00740       -2.30870
H          0.31090        1.92520       -1.42240
H          0.36450        3.78930       -0.56640
H          0.55020        3.89440        1.20110
H          2.18660        5.38490        0.15630
H          3.05480        4.01080        0.88260
H          4.42640        3.01450       -0.27370
