13
gdb 4765	6.79177	1.3553	1.13782	1.7753	58.18	-0.2044	0.0454	0.2498	986.7898	0.093858	-435.740609	-435.732638	-435.731694	-435.774046	26.997
C          0.02570        1.38860        0.07190
N          0.18140       -0.05520        0.04640
C          0.63920       -0.60100       -0.97930
O          1.04450       -0.04200       -2.15770
C          1.45820       -1.08900       -2.99420
C          1.31150       -2.22440       -2.31890
O          1.55950       -3.49830       -2.62520
O          0.80970       -1.97030       -1.06600
H          0.76670        1.82730        0.75090
H          0.13130        1.86930       -0.90810
H         -0.96200        1.63300        0.47600
H          1.80990       -0.84310       -3.97720
H          1.27270       -4.04890       -1.88670
