18
gdb 12025	4.34428	1.39285	1.25528	0.8038	68.24	-0.249	0.079	0.328	1011.805	0.151962	-384.901565	-384.893235	-384.892291	-384.934026	31.408
C          0.22250        1.53250       -0.06040
C          0.05400        0.03460        0.05380
O         -1.14460       -0.45420       -0.49880
C          1.25510       -0.88280       -0.01090
C          0.47370       -0.72800        1.28000
C          1.08300       -0.06680        2.47560
C          2.38030       -0.49110        3.02250
O          2.26100        0.72030        2.27300
H          1.13760        1.86960        0.42970
H          0.27310        1.83020       -1.11540
H         -0.63130        2.04820        0.39140
H         -1.11500       -0.29190       -1.44850
H          1.14550       -1.81420       -0.55440
H          2.23790       -0.42500       -0.04610
H         -0.19500       -1.54710        1.53100
H          0.37360        0.38560        3.17090
H          2.59340       -0.36260        4.08250
H          2.92670       -1.29090        2.52540
