18
gdb 1277	6.85074	1.16697	1.08656	3.4726	65.86	-0.2396	0.0386	0.2781	1137.2336	0.158619	-327.023352	-327.014207	-327.013263	-327.059074	30.683
C          0.15240        1.47000        0.10970
C          0.25300       -0.04930       -0.04600
C          0.25520       -0.48370       -1.51710
N          0.33720       -1.92370       -1.69300
C          1.49510       -2.55790       -2.04750
C          1.40710       -4.07610       -2.11060
O          2.52710       -1.96100       -2.29770
H          0.99550        1.97310       -0.37580
H         -0.76820        1.85700       -0.34180
H          0.15280        1.76140        1.16410
H          1.17020       -0.41840        0.42700
H         -0.58400       -0.53300        0.47520
H         -0.64690       -0.11140       -2.01970
H          1.12290       -0.06460       -2.03240
H         -0.46390       -2.48210       -1.44930
H          0.39300       -4.46620       -1.98870
H          1.80630       -4.40930       -3.07140
H          2.04420       -4.49920       -1.32840
