16
gdb 1347	4.32251	2.36837	2.31433	1.4328	60.43	-0.2471	0.0256	0.2727	681.1161	0.137006	-325.800949	-325.793924	-325.79298	-325.83194	25.909
C          0.06230        1.47870        0.05460
C         -0.03920       -0.04960       -0.01420
C         -1.50490       -0.49810       -0.05310
C          0.78740       -0.64110       -1.19980
O          1.79050       -1.47220       -0.57140
C          1.56000       -1.36100        0.75910
N          0.61580       -0.63420        1.18390
H          1.10850        1.79630        0.09680
H         -0.40350        1.93900       -0.82380
H         -0.44210        1.85230        0.94980
H         -2.01210       -0.09190       -0.93520
H         -1.57540       -1.58950       -0.08660
H         -2.03170       -0.15130        0.83980
H          0.19270       -1.27100       -1.86770
H          1.30020        0.12270       -1.79190
H          2.24200       -1.93590        1.37650
