17
gdb 11532	5.81038	0.96823	0.91393	2.7555	65.98	-0.2477	-0.0425	0.2052	1253.3807	0.140888	-400.973788	-400.965363	-400.964419	-401.007449	30.01
O         -0.22380        1.37750        0.00080
C          0.04080        0.00430       -0.07860
C          0.88680       -0.32600       -1.32640
C          0.16900        0.03890       -2.60610
C          0.46580       -0.68030       -3.86690
N         -0.83110       -0.87320       -3.18870
C          0.73840       -0.47320        1.17750
O          1.01390        0.28090        2.07920
H          0.11650        1.66100        0.86420
H         -0.90520       -0.56520       -0.14720
H          1.82950        0.23090       -1.25480
H          1.13450       -1.39670       -1.33310
H         -0.12280        1.08420       -2.66300
H          0.41190       -0.16180       -4.81970
H          1.19620       -1.48560       -3.83300
H         -0.82110       -1.76070       -2.68940
H          0.98620       -1.55390        1.22400
