14
gdb 8259	6.89136	1.01656	0.93505	2.8303	58.93	-0.2641	-0.0389	0.2252	1158.1171	0.105639	-419.711031	-419.703418	-419.702474	-419.744256	26.218
O         -0.90380        0.72370        0.47790
C          0.05900        0.89840       -0.22230
C          1.17240        1.88230        0.09480
C          1.41930        2.86100       -1.04370
C          2.72070        3.68370       -1.02330
C          3.05390        2.88540       -2.28500
O          3.93450        2.80660       -3.07570
O          1.87710        2.17190       -2.26280
H          0.19910        0.33590       -1.17010
H          0.91370        2.42180        1.01080
H          2.09380        1.31010        0.27060
H          0.52190        3.44010       -1.27720
H          2.62180        4.75830       -1.18280
H          3.39260        3.49630       -0.18350
