16
gdb 7524	5.11848	1.20286	1.14254	2.1095	66.26	-0.2399	0.0396	0.2795	1056.562	0.127319	-383.681333	-383.672671	-383.671726	-383.71429	32.39
O          0.16590        1.31250        0.11610
C          0.04490       -0.07170        0.09100
C         -0.60510       -0.81600        1.24630
C         -1.31600       -0.67760       -0.08600
O         -2.31880        0.29920       -0.17680
C         -1.55120       -1.88790       -0.97830
C         -2.77120       -2.59750       -0.60020
C         -3.79390       -3.12810       -0.25580
H         -0.73220        1.66400        0.04840
H          0.88980       -0.54330       -0.40350
H         -0.21610       -1.78680        1.53560
H         -0.97960       -0.20410        2.06000
H         -3.11240       -0.04650        0.24840
H         -1.62610       -1.55400       -2.02080
H         -0.68890       -2.56230       -0.91940
H         -4.68720       -3.62450        0.03300
