14
gdb 821	6.64696	1.61865	1.43804	1.5017	57.93	-0.2458	-0.0027	0.2432	829.7464	0.111634	-361.650084	-361.642701	-361.641757	-361.681597	26.237
C         -0.89630        0.83110        0.02950
C          0.12650       -0.24600        0.24860
N          0.87290       -0.36270        1.28240
O          0.59720        0.61840        2.23990
C          0.35010       -1.29160       -0.78430
C         -0.74010       -1.81700       -1.62540
O          0.20690       -0.89440       -2.15540
H         -0.51990        1.78450        0.40610
H         -1.12550        0.92240       -1.03350
H         -1.81920        0.61180        0.57850
H          1.25220        0.42870        2.92010
H          1.19960       -1.93920       -0.57800
H         -0.67100       -2.83530       -2.00530
H         -1.75160       -1.43270       -1.50400
