15
gdb 14331	4.50081	1.80902	1.53328	3.74	61.05	-0.2439	0.0294	0.2733	821.8484	0.121165	-399.825813	-399.819382	-399.818438	-399.85671	24.474
O         -0.07470       -0.04890        0.16170
C         -0.09690        1.15070        0.01730
C         -1.31300        2.02770       -0.31530
C         -0.81450        3.45770       -0.18000
O         -0.95170        3.98930        1.15800
C          0.47530        4.15660        1.29830
C          0.73140        3.39540       -0.02130
N          0.99470        1.98580        0.09720
H         -1.65680        1.79160       -1.32740
H         -2.13130        1.81860        0.37720
H         -1.20770        4.15110       -0.92950
H          0.76650        5.21490        1.27000
H          0.86260        3.69050        2.21070
H          1.36750        3.88560       -0.76180
H          1.89700        1.60510        0.33610
