20
gdb 13638	6.26017	0.79435	0.74885	0.1426	84.47	-0.2382	0.0649	0.303	1583.9331	0.175175	-311.838514	-311.828694	-311.82775	-311.874994	34.18
C         -0.06520        1.44380       -0.31380
C         -0.03740        0.01320       -0.04290
C         -0.00700       -1.16980        0.17950
C          0.00250       -2.60570        0.45230
C         -1.36030       -3.25340        0.23860
C         -1.78220       -3.74060       -1.12500
C         -1.52750       -4.73520       -0.01550
C         -0.36660       -5.70470       -0.08090
H          0.75950        1.74230       -0.97080
H         -0.99970        1.73880       -0.80420
H          0.02110        2.02820        0.60920
H          0.75270       -3.08980       -0.18440
H          0.33260       -2.77750        1.48630
H         -2.14120       -2.79220        0.83680
H         -2.79930       -3.56270       -1.45660
H         -1.04340       -3.68560       -1.91960
H         -2.42000       -5.16440        0.43380
H          0.50250       -5.27380       -0.58630
H         -0.04760       -6.01940        0.91940
H         -0.64860       -6.60590       -0.63660
