17
gdb 17035	6.08841	1.31061	1.30071	4.09	70.93	-0.2349	0.0149	0.2498	990.2471	0.142242	-363.812226	-363.804919	-363.803975	-363.843744	27.579
C          0.02080        1.69920        0.04820
C         -0.03720        0.18270        0.04850
C          0.96610       -0.69730       -0.77270
C          2.07490       -0.36960        0.27580
C          0.77140       -0.68920        1.06690
N          0.52730       -1.83500        0.11210
C          1.11310       -3.07460        0.15120
O          1.57760       -3.65650       -0.80470
H          1.03030        2.10330        0.15120
H         -0.39890        2.09030       -0.88460
H         -0.58300        2.10030        0.86920
H         -1.06550       -0.17230       -0.05700
H          1.05530       -0.81950       -1.85030
H          2.87620       -1.10540        0.35640
H          2.46120        0.64970        0.31320
H          0.62460       -0.79890        2.14210
H          1.02540       -3.53600        1.15710
