13
gdb 19249	3.33567	2.05382	1.61843	4.9247	57.58	-0.2765	0.0141	0.2906	785.832	0.09543	-398.563441	-398.556631	-398.555687	-398.594647	25.11
O          0.02890        1.38630        0.20860
C          0.02550        0.01210        0.03980
C         -1.33780       -0.69780        0.03470
O         -2.05100       -0.13840       -1.07960
C         -1.13950       -1.20700       -1.33070
C          0.26570       -0.58800       -1.43460
C          0.48690        0.36420       -2.50650
N          0.65250        1.14220       -3.34510
H         -0.66710        1.74810       -0.35650
H          0.74190       -0.41370        0.74480
H         -1.92500       -1.08020        0.86060
H         -1.51910       -2.09420       -1.82110
H          1.05900       -1.33960       -1.42130
