15
gdb 2513	4.2351	2.01471	1.39069	2.9385	62.88	-0.2272	-0.0657	0.1615	856.4745	0.122752	-341.835557	-341.827042	-341.826098	-341.868534	28.565
C         -0.00410        1.41860        0.01090
N         -0.05010       -0.02560        0.11610
C          0.63890       -0.66790        1.12420
C          0.59210       -2.16850        0.96950
O          1.13330       -2.95590        1.70130
N          1.19120        0.00160        2.06080
C          1.84460       -0.64180        3.18670
H          1.01710        1.79400       -0.13950
H         -0.63540        1.73530       -0.82210
H         -0.37770        1.86240        0.93710
H         -0.17620       -0.53850       -0.74170
H         -0.00160       -2.51980        0.09140
H          2.13740        0.13410        3.89990
H          1.20270       -1.36550        3.70270
H          2.74800       -1.18610        2.88460
