15
gdb 11204	3.43855	1.81216	1.50604	4.244	62.69	-0.2569	-0.0389	0.2179	864.5879	0.119154	-399.827614	-399.820373	-399.819429	-399.859791	26.095
N          0.06210        1.15840        0.17740
C          0.08030       -0.07690       -0.06330
C         -0.90730       -1.10420        0.44730
C         -0.69880       -2.29640       -0.49680
C          0.78370       -2.10360       -0.90270
O          1.01360       -0.70200       -0.85730
C          1.69890       -2.84870        0.06070
O          2.32320       -2.33080        0.94560
H          0.85290        1.62600       -0.26880
H         -0.64460       -1.36130        1.47880
H         -1.92130       -0.70530        0.44970
H         -0.88920       -3.26700       -0.03270
H         -1.33320       -2.21490       -1.38320
H          0.98770       -2.45600       -1.92010
H          1.71430       -3.95130       -0.10730
