18
gdb 12491	3.13591	1.92755	1.33172	2.4491	68.46	-0.2124	-0.0183	0.1941	932.072	0.156666	-381.115715	-381.108059	-381.107115	-381.14811	28.817
O          0.02220       -0.08470        0.50560
C         -0.04010        1.06780        0.13530
C         -1.39680        1.73110       -0.13370
N         -1.61440        2.00230       -1.55390
C         -1.05330        3.23230       -2.10060
C          0.34420        3.67170       -1.57950
N          1.33030        2.62040       -1.38450
C          1.23750        1.87830       -0.13170
H         -2.16570        1.04580        0.23670
H         -1.48710        2.67320        0.42000
H         -1.34700        1.19720       -2.10580
H         -1.00830        3.10290       -3.18790
H         -1.75180        4.06240       -1.91940
H          0.74130        4.41710       -2.28130
H          0.23510        4.18930       -0.61880
H          1.35960        1.98730       -2.17620
H          1.34610        2.59950        0.69260
H          2.07660        1.18060       -0.05980
