20
gdb 8912	3.46929	1.23181	0.97851	1.2873	77.18	-0.2632	0.0325	0.2958	1233.6964	0.173705	-348.974066	-348.96396	-348.963016	-349.008863	36.661
C          0.08220        1.56530        0.07970
C         -0.01100        0.03880       -0.00770
C         -1.45000       -0.50600       -0.05720
C         -2.17360       -0.13730       -1.35840
C         -1.43750       -2.04440        0.15320
O         -0.73400       -2.42540        1.33520
C         -2.78860       -2.61490        0.15830
C         -3.90050       -3.06860        0.22470
H          1.12540        1.88500        0.16490
H         -0.33950        2.05860       -0.80170
H         -0.45200        1.94400        0.95870
H          0.53090       -0.31280       -0.89720
H          0.49380       -0.40630        0.85440
H         -2.01170       -0.07910        0.78750
H         -1.64770       -0.55250       -2.22690
H         -3.19660       -0.52140       -1.36930
H         -2.22090        0.94700       -1.48830
H         -0.86350       -2.49490       -0.66760
H         -1.30780       -2.23250        2.08510
H         -4.87710       -3.48430        0.26660
