11
gdb 21360	5.4827	2.28094	1.61081	5.0884	59.04	-0.2352	-0.0424	0.1928	699.5824	0.074644	-393.56253	-393.557075	-393.556131	-393.591841	21.191
N         -0.03440        1.36750        0.01030
C          1.27090        1.81340       -0.00010
C          2.16300        0.75200       -0.01480
C          1.34270       -0.40150       -0.01310
C          0.02250       -0.00130        0.00210
N         -0.77640       -1.09110        0.00400
N         -0.06340       -2.13330       -0.00840
O          1.37160       -1.72840       -0.02080
H         -0.85590        1.94530        0.02150
H          1.47830        2.87230        0.00360
H          3.23730        0.82600       -0.02510
