15
gdb 21192	6.85636	1.31565	1.11889	3.4302	64.3	-0.1908	0.0517	0.2425	1031.8526	0.1215	-392.18707	-392.17912	-392.178176	-392.21918	28.815
C         -0.00130        1.35930        0.24040
N         -0.03680       -0.02250       -0.19900
C         -1.18220       -0.76340       -0.07230
N         -1.23760       -2.08660       -0.08460
C         -2.58140       -2.32520        0.01020
N         -3.08110       -3.61380       -0.03470
N         -3.35860       -1.25990        0.09560
N         -2.41990       -0.24240        0.04400
H          1.00890        1.74840        0.10100
H         -0.66980        1.97150       -0.37620
H         -0.28570        1.49230        1.29520
H          0.78980       -0.57210       -0.02150
H         -2.42940       -4.29700        0.32250
H         -3.99940       -3.69930        0.37670
H         -2.72280        0.71440        0.04150
