17
gdb 17472	4.1982	1.96399	1.6665	0.8945	66.79	-0.2329	0.074	0.3069	808.473	0.143968	-363.82497	-363.818381	-363.817437	-363.855159	27.276
O         -0.06450        1.37870       -0.07660
C         -0.03600       -0.01690        0.01390
C         -0.50640       -0.82730       -1.16220
C         -1.33740       -0.78000        0.10990
C         -1.13770       -1.89440        1.11190
N         -0.11920       -2.89660        0.72290
C          0.24630       -1.81160        1.65620
C          0.96170       -0.62970        1.01260
H          0.57200        1.64530       -0.74840
H         -0.89360       -0.25680       -2.00030
H         -0.00900       -1.75820       -1.40480
H         -2.28480       -0.25550        0.09540
H         -1.97800       -2.21440        1.71800
H         -0.27060       -3.75410        1.24810
H          0.47930       -2.07190        2.68390
H          1.91050       -0.92150        0.54960
H          1.17430        0.12940        1.77250
