18
gdb 15145	6.39776	0.84851	0.80511	4.5138	70.43	-0.239	0.0316	0.2706	1410.8667	0.153821	-381.110092	-381.10139	-381.100446	-381.145362	30.232
O          0.37480        0.28280        1.00320
C          0.17570        1.18790        0.22170
N          1.08940        1.67740       -0.65950
C          2.45220        1.17740       -0.73930
C          3.43010        1.98510        0.12310
N          4.77230        1.43810       -0.00390
C          5.61350        2.00810       -1.05290
C          5.87090        2.31410        0.38110
H         -0.79730        1.71300        0.13720
H          0.82150        2.46370       -1.22920
H          2.44400        0.14030       -0.39900
H          2.77520        1.19000       -1.78580
H          3.38210        3.05430       -0.16010
H          3.12100        1.90960        1.17110
H          6.24290        1.30600       -1.59190
H          5.19830        2.81030       -1.66260
H          5.62660        3.31830        0.72480
H          6.69160        1.83880        0.91060
