13
gdb 10243	2.64602	1.95081	1.17472	1.7283	61.31	-0.2601	-0.0553	0.2047	950.6814	0.092667	-398.601739	-398.593404	-398.592459	-398.634932	29.493
N         -0.26390        1.34370        0.04720
C          0.02690        0.01590        0.00950
O          1.13980       -0.45190        0.02270
C         -1.25320       -0.89180        0.03440
C         -2.25680       -0.51720       -1.06750
O         -2.68580        0.59820       -1.22600
C         -0.93430       -2.30740        0.00110
C         -0.73250       -3.48860       -0.06770
H          0.51020        1.97690       -0.08000
H         -1.18950        1.65070       -0.21900
H         -1.75950       -0.64010        0.97820
H         -2.57130       -1.35970       -1.71320
H         -0.52610       -4.52970       -0.11190
