22
gdb 12413	2.75739	1.93354	1.3992	1.295	77.51	-0.2429	0.0801	0.3231	996.9684	0.201893	-350.223865	-350.215588	-350.214644	-350.255905	32.445
C         -0.05820        1.56620       -0.04930
C          0.05450        0.03960       -0.00990
C          0.67500       -0.52910       -1.29870
C          0.79750       -2.05240       -1.21730
O          1.50400       -2.46540       -0.05990
C          0.86160       -2.03560        1.12900
C          0.80660       -0.50290        1.23420
C          2.21460        0.07700        1.43600
H          0.91640        2.04140       -0.20080
H         -0.70860        1.88510       -0.87090
H         -0.48030        1.95840        0.88280
H         -0.96800       -0.36280        0.05690
H          0.06230       -0.25660       -2.16710
H          1.66850       -0.09460       -1.46300
H         -0.20970       -2.50660       -1.22100
H          1.34840       -2.45500       -2.07270
H         -0.16120       -2.44990        1.17200
H          1.43410       -2.46700        1.95650
H          0.20610       -0.25740        2.12150
H          2.88170       -0.19890        0.61500
H          2.20150        1.16710        1.51780
H          2.65530       -0.31550        2.35870
