14
gdb 1448	6.67183	1.33195	1.2174	3.7723	56.27	-0.2481	-0.0266	0.2215	961.1479	0.111551	-361.754326	-361.746142	-361.745197	-361.788061	26.774
C          0.16500        1.38670       -0.24240
N          0.03300       -0.02140        0.08260
C          0.33470       -0.51970        1.31250
O          0.73980        0.15880        2.24030
C          0.14850       -2.02830        1.46640
C          1.42040       -2.67220        1.99940
O          1.85560       -3.72010        1.60090
H          0.49970        1.89780        0.66080
H          0.90250        1.54420       -1.03690
H         -0.79280        1.81060       -0.56220
H         -0.28060       -0.65650       -0.63190
H         -0.62490       -2.16900        2.23320
H         -0.16520       -2.54670        0.55710
H          1.91520       -2.08710        2.80060
