16
gdb 17365	4.13631	1.59652	1.54116	3.6852	64.41	-0.2396	-0.0182	0.2214	893.6067	0.128704	-383.707593	-383.699943	-383.698999	-383.740106	27.848
C          0.22330        1.51430       -0.02560
C         -0.10810        0.03530        0.07080
O         -0.37410       -0.51060        1.11470
C         -0.12570       -0.70730       -1.25860
O         -0.10760       -2.14540       -1.15960
C         -1.32300       -2.23160       -1.91140
C         -2.45230       -1.58120       -1.18420
C         -1.48310       -0.73200       -1.98800
H          1.29320        1.63720       -0.23240
H         -0.31870        1.98970       -0.85050
H         -0.01800        2.00940        0.91560
H          0.68720       -0.35900       -1.90910
H         -1.40130       -3.01530       -2.65510
H         -3.42850       -1.68770       -1.64720
H         -2.44280       -1.55610       -0.09930
H         -1.77520       -0.08620       -2.80410
