17
gdb 5307	4.41354	1.5396	1.18905	0.7508	70.9	-0.2006	0.038	0.2386	1001.3511	0.143467	-363.901528	-363.893756	-363.892812	-363.933737	29.544
C          0.12770        1.40900        0.88400
C         -0.16230        0.30740       -0.13340
O          0.83580       -0.72340       -0.10500
C         -1.53130       -0.28990        0.02450
C         -2.69130        0.14370        0.63290
C         -3.69000       -0.84630        0.41380
C         -3.11120       -1.85770       -0.31780
N         -1.80840       -1.50600       -0.55330
H          1.14420        1.78390        0.74140
H         -0.57090        2.24310        0.76810
H          0.03130        1.02860        1.90680
H         -0.05430        0.72800       -1.14260
H          0.79820       -1.12650        0.77080
H         -2.81490        1.07270        1.16790
H         -4.71270       -0.81930        0.75760
H         -3.51030       -2.79230       -0.67810
H         -1.10720       -2.06160       -1.01320
