19
gdb 3443	4.17847	2.62846	1.95991	0.2227	70.04	-0.2606	0.0878	0.3484	738.0107	0.174042	-273.79352	-273.786936	-273.785992	-273.823515	26.458
C         -0.03100        1.56790        0.00500
C          0.04650        0.03990        0.01990
C          0.79500       -0.56210       -1.19570
C          1.31290       -1.93990       -0.72460
C          1.53510       -1.77690        0.77400
C          2.27250       -0.54430        1.23830
C          0.76140       -0.55990        1.22840
H          0.97110        2.01010        0.03290
H         -0.53330        1.93150       -0.89820
H         -0.58590        1.94800        0.86940
H         -0.97870       -0.35730        0.02380
H          0.15710       -0.63250       -2.08120
H          1.63490        0.08650       -1.46940
H          0.55140       -2.71150       -0.89220
H          2.21190       -2.25430       -1.26670
H          1.59110       -2.66860        1.38910
H          2.75830       -0.59470        2.20680
H          2.80940        0.05980        0.51370
H          0.24740       -0.54650        2.18410
