16
gdb 5864	4.38387	0.8975	0.88911	3.9935	72.9	-0.2658	-0.0602	0.2055	1342.591	0.126177	-383.718167	-383.708531	-383.707587	-383.753067	33.224
C          0.24520        1.52380        0.01320
C         -0.03490        0.00750        0.01960
C          0.57920       -0.66640        1.26310
O         -1.44340       -0.23750       -0.03340
C          0.53470       -0.59560       -1.18920
C          1.06110       -1.07270       -2.16550
C          1.63720       -1.65950       -3.34710
O          2.81570       -1.63630       -3.62000
H          1.31870        1.72830       -0.00480
H         -0.21960        1.98740       -0.85940
H         -0.17620        1.97560        0.91830
H          0.15800       -0.21360        2.16790
H          0.34770       -1.73350        1.26430
H          1.66430       -0.53770        1.28820
H         -1.82970        0.15490        0.75780
H          0.89790       -2.15100       -4.01160
