17
gdb 10271	2.7149	1.62774	1.28947	2.0978	65.73	-0.2167	-0.0429	0.1738	1005.2112	0.138148	-400.991541	-400.982245	-400.981301	-401.02561	31.97
C          0.16250        1.48470       -0.00990
N          0.07730        0.03420        0.10870
C          0.88160       -0.48960        1.21030
C         -1.26140       -0.50250        0.02600
C         -1.24220       -1.95940       -0.45390
O         -2.19220       -2.69580       -0.41580
C         -2.17330       -0.34940        1.25180
O         -1.92560        0.37920        2.17740
H          1.21250        1.77090       -0.13240
H         -0.37810        1.81320       -0.90400
H         -0.24280        2.02130        0.86050
H          0.58840       -0.09860        2.19480
H          0.80800       -1.58220        1.24080
H          1.93200       -0.23660        1.03370
H         -1.79630        0.02540       -0.78310
H         -0.26000       -2.26540       -0.87480
H         -3.09170       -0.97170        1.21710
