14
gdb 16133	4.18725	1.89737	1.53153	2.8614	62.21	-0.2591	-0.0412	0.2179	807.7716	0.107959	-378.708685	-378.702143	-378.701199	-378.739506	24.373
O         -0.85710        1.14740       -0.20270
C          0.25880        0.85100        0.14110
C          1.42370        1.77320        0.04140
C          2.79110        1.20680       -0.15190
N          2.40480        1.70630        1.17770
C          2.74520        3.09350        1.33140
N          2.15610        3.96460        0.62200
C          1.21360        3.25450       -0.26190
H          0.50140       -0.14870        0.56250
H          2.92730        0.13040       -0.20860
H          3.49160        1.79890       -0.73550
H          3.48890        3.33640        2.08440
H          1.40500        3.52850       -1.30400
H          0.18380        3.54750       -0.03380
