19
gdb 16775	3.85833	1.50712	1.40586	2.9178	70.17	-0.2389	0.073	0.3119	963.3227	0.167633	-365.044548	-365.03691	-365.035966	-365.076493	29.381
O          0.32540        1.03200       -0.49910
C         -0.05100       -0.32500       -0.30080
C         -1.49490       -0.47290        0.20450
C         -2.56250       -0.03520       -0.84220
C         -3.09340       -1.32030       -1.44800
N         -2.02080       -2.22290       -1.92680
C         -2.66010       -2.46580       -0.61330
C         -1.84030       -1.95090        0.55460
H         -0.07120        1.33100       -1.32210
H          0.08960       -0.92300       -1.20940
H          0.63290       -0.71020        0.46430
H         -1.57340        0.15740        1.09550
H         -3.38690        0.49960       -0.35710
H         -2.15090        0.64270       -1.59900
H         -4.04380       -1.31890       -1.97280
H         -2.40940       -2.86840       -2.61000
H         -3.27520       -3.35190       -0.49190
H         -0.93950       -2.55040        0.72770
H         -2.44580       -2.00370        1.46640
