13
gdb 4207	5.33988	1.71559	1.52878	2.0959	60.88	-0.2343	0.0112	0.2455	803.2722	0.095097	-398.469113	-398.462913	-398.461968	-398.499369	24.153
O         -0.19030        1.32840        0.00570
N         -0.00890       -0.07250        0.07440
C         -1.12290       -0.66990        0.09720
C         -1.48190       -2.10500        0.00190
C         -2.89450       -2.15230        0.62840
O         -3.19180       -0.86610        1.17100
C         -2.60200       -0.31070       -0.04310
C         -2.76770       -1.70290       -0.77490
H          0.71900        1.64490        0.00500
H         -0.85020       -2.97070       -0.13330
H         -3.32120       -3.03590        1.08400
H         -2.96720        0.67170       -0.32120
H         -3.14580       -2.01700       -1.73650
