20
gdb 7004	2.5366	1.86721	1.50172	2.5467	70.85	-0.2467	0.0705	0.3172	960.8609	0.174617	-386.130166	-386.12076	-386.119816	-386.163337	35.284
C         -0.08030        1.49820        0.00830
C         -0.02120       -0.03220        0.00170
C         -1.40090       -0.63160       -0.25470
C          1.14100       -0.57420       -0.88680
O          1.51340        0.27910       -1.94460
C          2.04920       -0.66010        0.36940
C          0.75810       -0.59800        1.22920
O          0.73270        0.23060        2.36870
H          0.89610        1.95110        0.19010
H         -0.44230        1.86290       -0.95690
H         -0.75900        1.84320        0.79310
H         -1.79690       -0.30290       -1.22210
H         -1.36780       -1.72700       -0.26110
H         -2.11210       -0.32250        0.51950
H          0.89710       -1.57820       -1.26450
H          2.26180       -0.11660       -2.40190
H          2.70660       -1.52680        0.47860
H          2.62850        0.25980        0.48460
H          0.40120       -1.60910        1.47550
H          1.27490       -0.17800        3.05060
