18
gdb 18603	3.10674	2.27674	1.83168	2.2951	66.14	-0.2503	0.0686	0.3189	798.599	0.156632	-384.932069	-384.925455	-384.924511	-384.962751	26.661
O          0.32490        1.18300       -0.54440
C          0.08810       -0.12220       -0.07510
C          0.24260       -0.34630        1.45700
C         -1.27780       -0.63320        1.58240
C         -2.13030        0.55500        2.04920
O         -2.23430        1.42940        0.92190
C         -2.40680        0.57220       -0.21260
C         -1.41760       -0.56220        0.02030
H         -0.21970        1.77700       -0.00930
H          0.70550       -0.77780       -0.69380
H          0.87610       -1.19830        1.71630
H          0.60650        0.53190        2.00030
H         -1.55330       -1.56370        2.08050
H         -3.13300        0.21620        2.35370
H         -1.68970        1.12540        2.87170
H         -3.44100        0.19740       -0.25820
H         -2.19740        1.16200       -1.10760
H         -1.67060       -1.48250       -0.50800
