17
gdb 14655	14.8078	0.58586	0.57754	2.5951	71.43	-0.2563	-0.0352	0.2211	1862.6791	0.13869	-400.997276	-400.987622	-400.986677	-401.033779	31.247
C          0.03500        1.39070        0.10290
N          0.03900       -0.05010        0.24370
C         -1.03250       -0.65910        0.00280
O         -1.09310       -2.00610        0.09790
C         -2.37620       -2.58870       -0.11080
C         -2.18940       -4.10300       -0.15750
C         -3.51230       -4.83700       -0.11970
O         -3.87010       -5.64940       -0.93110
H          0.78400        1.68880       -0.63950
H         -0.93840        1.81010       -0.20060
H          0.32800        1.85260        1.05240
H         -1.97720       -0.18050       -0.30180
H         -3.05410       -2.30920        0.70900
H         -2.81350       -2.22470       -1.05000
H         -1.62870       -4.40710       -1.04390
H         -1.61750       -4.39570        0.73390
H         -4.15970       -4.57290        0.74980
