18
gdb 8872	3.73989	1.34397	1.07552	3.5651	72.1	-0.2278	-0.0671	0.1607	1119.191	0.15236	-381.125603	-381.116264	-381.115319	-381.160042	32.397
C         -0.02850        1.54940       -0.03430
C          0.04200        0.01790       -0.02160
N          0.67040       -0.57440       -1.20330
C          2.12150       -0.49490       -1.24860
C         -0.09750       -0.70560       -2.33750
N         -1.29860       -0.26180       -2.40440
C          0.46470       -1.55050       -3.46980
O         -0.06430       -1.59380       -4.55070
H          0.96560        2.00420       -0.09600
H         -0.62740        1.89060       -0.88090
H         -0.49770        1.90560        0.88820
H          0.60860       -0.32970        0.85070
H         -0.96900       -0.39030        0.04170
H          2.51970       -0.95380       -2.15320
H          2.47730        0.54470       -1.22920
H          2.55170       -1.01550       -0.38580
H         -1.69810       -0.55320       -3.29820
H          1.34490       -2.18420       -3.24250
