18
gdb 15549	2.78484	2.04677	1.39686	0.6802	78.12	-0.2446	0.017	0.2616	939.4181	0.15352	-310.649626	-310.641641	-310.640696	-310.68178	30.598
C         -0.71680        1.29110       -0.05420
C          0.08120       -0.00850       -0.07660
C          1.30150       -0.01190       -1.03150
C          2.24870       -0.98840       -0.37950
C          1.90590       -1.25710        0.87750
C          0.66170       -0.48730        1.30410
C          1.00700        0.58770        2.23500
C          1.30470        1.46270        3.00500
H         -0.10020        2.12690        0.28890
H         -1.08970        1.52920       -1.05600
H         -1.58060        1.21950        0.61490
H         -0.57930       -0.82050       -0.40340
H          1.02060       -0.29560       -2.05210
H          1.76160        0.98470       -1.10210
H          3.12250       -1.38680       -0.88370
H          2.45020       -1.88870        1.56940
H         -0.06530       -1.13990        1.80490
H          1.56710        2.23360        3.68630
