18
gdb 20178	3.74474	2.46038	1.86648	0.7221	77.21	-0.2208	-0.0006	0.2202	767.2796	0.156801	-310.606586	-310.600607	-310.599663	-310.636135	25.619
C         -0.09650        1.37000        0.19120
C          1.41690        1.49070       -0.16410
C          2.32410        0.23320       -0.02920
C          2.26070       -1.00540        0.88220
C          1.18310       -2.00980        0.33870
C         -0.06580       -1.16710        0.29570
C          0.02950       -0.02810       -0.39470
C          1.31570        0.32960       -1.13350
H         -0.41940        1.45360        1.23420
H         -0.64900        2.08950       -0.42440
H          1.90260        2.44600       -0.34000
H          3.33810        0.50520       -0.31850
H          3.24990       -1.47940        0.90050
H          2.01790       -0.74950        1.91930
H          1.49680       -2.36450       -0.64830
H          1.08500       -2.88150        0.99070
H         -0.78550       -1.26270        1.10640
H          1.51020        0.28370       -2.19740
