13
gdb 20466	6.37473	1.47767	1.3018	3.379	61.23	-0.2592	-0.0269	0.2323	894.304	0.096363	-398.564607	-398.558252	-398.557308	-398.595809	22.958
C          0.32360        1.50530        0.12250
O          1.10940        0.38190       -0.26180
C         -0.27280        0.16050        0.04410
C         -0.57860       -0.63320        1.24520
C         -1.44040       -1.66510        1.46290
C         -1.25670       -1.96080        2.83920
N         -0.36610       -1.18070        3.39950
O          0.06610       -0.33050        2.38580
H          0.55320        1.92270        1.10030
H          0.10770        2.22430       -0.66650
H         -0.89310       -0.08930       -0.81480
H         -2.09600       -2.14220        0.75410
H         -1.74110       -2.71780        3.43980
