16
gdb 4760	4.47434	1.53023	1.15699	3.3022	70.72	-0.1817	0.0364	0.2181	1027.9647	0.129684	-379.9483	-379.939758	-379.938814	-379.981937	29.726
C         -0.07880        1.42630        0.07170
N         -0.00240       -0.02340        0.02870
C         -1.08460       -0.67370        0.02910
N         -1.23080       -2.04640       -0.00800
C         -2.58720       -2.36700       -0.07250
C         -3.27290       -1.21900       -0.01160
C         -4.71440       -0.88150        0.00530
O         -2.37120       -0.16040        0.06510
H          0.90340        1.84150       -0.17070
H         -0.80990        1.84120       -0.63690
H         -0.35440        1.79360        1.07110
H         -0.45420       -2.65740       -0.18270
H         -2.93810       -3.38300       -0.12680
H         -4.99300       -0.35830        0.92760
H         -4.98100       -0.22770       -0.83330
H         -5.31160       -1.79370       -0.06600
