16
gdb 18934	3.69664	2.50196	2.01037	2.2977	62.66	-0.2181	0.0629	0.281	707.195	0.134799	-379.849473	-379.843962	-379.843017	-379.878763	23.651
O          0.07410        1.36140       -0.00480
C         -0.00780       -0.03460        0.00680
C          0.39630       -0.67930        1.35710
N         -0.55250        0.09340        2.23940
C         -1.58310       -0.78960        1.62180
C         -0.59460       -1.93710        1.33050
N         -1.18920       -2.12350       -0.00140
C         -1.43640       -0.65310        0.04820
H         -0.19510        1.62600        0.89050
H          0.55910       -0.41330       -0.84920
H          1.44590       -0.71220        1.64400
H         -0.42510       -0.19580        3.20750
H         -2.56940       -0.88130        2.07030
H         -0.39720       -2.79990        1.96790
H         -0.53920       -2.40510       -0.73620
H         -2.20460       -0.23290       -0.59910
