17
gdb 8908	3.73955	1.17062	1.06193	3.9493	64.6	-0.2799	0.01	0.2899	1131.769	0.139996	-401.001805	-400.992276	-400.991331	-401.036126	33.288
C          0.07300        1.57550       -0.03840
C          0.01520        0.04620        0.04500
C          0.75870       -0.48600        1.27360
O          2.11550       -0.08950        1.16040
C         -1.43210       -0.49730        0.05120
O         -2.19750       -0.06870        1.16500
C         -2.12080       -0.17780       -1.21730
N         -2.66080        0.10030       -2.20040
H          1.11390        1.90250       -0.04250
H         -0.41310        1.94600       -0.94560
H         -0.40930        2.04060        0.82990
H          0.50730       -0.37280       -0.84210
H          0.29220       -0.08570        2.18520
H          0.66840       -1.58410        1.31150
H          2.56800       -0.32260        1.97590
H         -1.39800       -1.58970        0.13640
H         -2.35670        0.87790        1.07770
