16
gdb 18626	3.11469	2.03203	1.71311	2.2803	64.64	-0.2429	-0.0231	0.2198	825.7191	0.13034	-383.743935	-383.736655	-383.735711	-383.775607	27.058
C         -0.13500        1.50390        0.01590
C          0.01470       -0.00020        0.04480
C          1.26440       -0.71360       -0.35110
O          2.43260        0.06740       -0.48100
C          2.90630        0.46660        0.79710
C          1.90590       -0.04260        1.84380
O          2.03120        0.06880        3.03670
C          0.83740       -0.77200        1.09830
H          0.82540        2.01580        0.10020
H         -0.58440        1.81450       -0.93300
H         -0.78300        1.85360        0.82550
H         -0.89700       -0.54090       -0.19930
H          1.25360       -1.57130       -1.01500
H          3.89210        0.02400        0.99370
H          3.00840        1.55740        0.85290
H          0.38830       -1.63130        1.57960
