11
gdb 5421	4.10352	2.06493	1.37368	5.9388	54.08	-0.2471	-0.0415	0.2056	796.6854	0.072411	-434.597566	-434.591189	-434.590245	-434.6284	22.716
O         -0.16500       -0.01540        0.00220
C         -0.06190        1.17680        0.00960
N          1.14360        1.88740        0.00210
C          1.25540        3.28940        0.01150
C          2.55740        3.57190       -0.00000
O          3.30270        2.41470       -0.01640
C          2.44490        1.33140       -0.01580
O          2.79190        0.19430       -0.02780
H         -0.91920        1.87670        0.02440
H          0.39110        3.93090        0.02550
H          3.10310        4.49900        0.00130
