15
gdb 4508	3.59519	1.78141	1.2078	1.7631	64.62	-0.1857	0.0392	0.2249	963.2841	0.119755	-396.023448	-396.015148	-396.014204	-396.056457	29.707
C          0.01830        1.45720       -0.00640
C          0.03170       -0.03470       -0.01650
N          0.01210       -0.79570       -1.10220
C          0.03490       -2.08210       -0.65030
O          0.02370       -3.13820       -1.50060
C          0.06890       -2.14230        0.72000
N          0.10180       -3.16870        1.68350
N          0.06600       -0.79970        1.10190
H          0.91060        1.87250        0.47660
H         -0.00990        1.81180       -1.03760
H         -0.85700        1.85640        0.51940
H         -0.00140       -2.76200       -2.38850
H          0.92110       -3.75870        1.57860
H         -0.71080       -3.77340        1.61880
H          0.08660       -0.49010        2.05950
