16
gdb 16633	3.31138	2.32709	1.54488	3.7321	64.82	-0.2229	0.057	0.2799	824.5842	0.132361	-379.951665	-379.94447	-379.943526	-379.983025	27.093
C         -0.07090        1.37600        0.05680
N         -0.02660       -0.05450        0.24400
C         -1.17150       -0.90550        0.13670
C         -1.35560       -1.68400       -1.15420
C         -0.61340       -2.29880        0.02220
N          0.80500       -2.12420        0.11970
C          1.15140       -0.77210        0.09130
O          2.26610       -0.31540       -0.04390
H          0.95610        1.74290        0.09830
H         -0.50700        1.64770       -0.91450
H         -0.65870        1.85720        0.84670
H         -2.02240       -0.66240        0.76400
H         -2.34810       -2.07200       -1.35720
H         -0.78590       -1.37880       -2.02550
H         -1.04150       -3.13780        0.55810
H          1.45350       -2.76550       -0.30800
