16
gdb 20977	4.71698	1.62829	1.23681	1.4022	67.52	-0.1988	0.0079	0.2067	954.819	0.132413	-376.094967	-376.087127	-376.086182	-376.12738	27.846
C          0.16410        1.39600        0.02650
N         -0.25230        0.00730       -0.01600
C         -0.02520       -0.76890        1.19190
C         -0.10460       -0.65150       -1.21980
N         -0.08840       -1.98700       -1.30990
N          0.00640       -2.19730       -2.62720
N          0.07160       -1.12890       -3.39610
C          0.00660       -0.11860       -2.52880
H          1.25650        1.52710       -0.05120
H         -0.30700        1.95830       -0.78440
H         -0.16690        1.83740        0.97020
H         -0.39720       -0.20430        2.05120
H         -0.56760       -1.71300        1.12590
H          1.03950       -1.00020        1.35830
H          0.04540       -3.12830       -3.00590
H          0.04180        0.90270       -2.86810
