15
gdb 14316	5.47341	1.6481	1.33686	4.8871	70.	-0.2245	-0.0188	0.2058	878.8061	0.121288	-362.664288	-362.657995	-362.657051	-362.694675	24.726
O          0.09040       -0.00600        0.10380
C          0.02970        1.19650       -0.00570
C         -1.31400        2.01320        0.03010
C         -0.88010        3.39970       -0.44380
C         -0.78820        4.77270        0.31350
N          0.68960        4.73310        0.02520
C          0.60150        3.37840       -0.22270
C          1.15230        2.16350       -0.04750
H         -2.08470        1.53480       -0.57750
H         -1.66000        2.01230        1.06960
H         -1.14490        3.57790       -1.48910
H         -1.30660        5.62990       -0.12150
H         -1.00650        4.69600        1.38380
H          1.38210        5.11920        0.65500
H          2.16920        1.89340        0.19660
