15
gdb 4577	5.7987	1.55213	1.23485	1.5735	73.14	-0.216	-0.0337	0.1823	952.6011	0.120788	-358.906952	-358.899695	-358.898751	-358.938449	27.2
C         -0.03070        1.50560        0.00330
C         -0.01320        0.00190        0.01820
N         -0.26110       -0.64060       -1.13760
C         -0.25120       -1.96180       -1.12390
C          0.01390       -2.69740        0.04990
N         -0.03050       -4.07670        0.07040
N          0.27150       -2.07020        1.19830
C          0.25000       -0.73540        1.16950
H          0.19560        1.91550        0.99110
H          0.70300        1.89660       -0.70940
H         -1.01130        1.88030       -0.30880
H         -0.45740       -2.47390       -2.06250
H          0.16090       -4.55250       -0.79720
H          0.41350       -4.48920        0.87760
H          0.45900       -0.23160        2.11080
