15
gdb 20863	3.2663	1.85732	1.29174	4.6685	62.97	-0.2453	-0.0255	0.2198	933.9084	0.119209	-395.95083	-395.943108	-395.942164	-395.983127	27.995
C          0.06200        1.51990        0.12180
C         -0.08690        0.00140       -0.08130
C          0.70340       -0.51680       -1.24070
N          0.16690       -0.83800       -2.38530
O          1.18210       -1.26030       -3.18900
N          2.39630       -1.19380       -2.53660
C          2.11740       -0.74790       -1.33970
N          3.05750       -0.62450       -0.33420
H          1.10470        1.81040        0.29230
H         -0.29210        2.06460       -0.75760
H         -0.51870        1.84910        0.98800
H          0.22980       -0.52700        0.82610
H         -1.13860       -0.24690       -0.24690
H          4.00930       -0.69150       -0.66890
H          2.92760        0.17540        0.26810
