12
gdb 575	11.47792	2.02229	1.84983	4.3345	50.4	-0.2641	0.0237	0.2878	642.9501	0.097425	-265.396194	-265.390273	-265.389329	-265.425905	20.503
N         -0.00980       -1.04040        0.43320
C         -0.00340        0.07240        0.12340
C          0.01150        1.48370       -0.26890
C          1.40090        2.09940       -0.20660
C          1.54000        3.53940        0.12010
N          1.98190        2.50780        1.07450
H         -0.39010        1.56320       -1.28640
H         -0.67530        2.03470        0.38500
H          2.11820        1.64100       -0.88310
H          2.33760        4.12570       -0.32590
H          0.63310        4.10000        0.33520
H          1.30390        2.40250        1.82590
