12
gdb 3499	7.42468	2.04823	1.93847	2.2163	54.54	-0.2667	0.0094	0.2761	649.7046	0.090789	-323.312767	-323.307253	-323.306309	-323.34206	20.65
N         -0.09060       -1.22310       -0.10760
C         -0.05720       -0.06840       -0.05560
C         -0.01320        1.38090        0.01150
C          0.12240        2.11360        1.38690
C          1.57740        1.61050        1.52470
C          1.35430        2.13640        0.08850
O          0.62290        3.28970        0.64860
H         -0.73080        1.85120       -0.66100
H         -0.64950        2.26950        2.13970
H          2.21720        2.23930        2.14280
H          1.74800        0.54220        1.66780
H          2.06250        2.31970       -0.71880
