17
gdb 16805	3.59164	1.8778	1.43875	2.7985	69.49	-0.2301	0.0095	0.2396	900.0686	0.143366	-363.844317	-363.837024	-363.83608	-363.87558	28.381
C         -0.02740        1.50710        0.06800
C         -0.05090        0.01480       -0.01820
C         -0.09430       -0.75350       -1.11110
C         -0.03720       -2.24340       -0.80180
O          1.07860       -2.89040       -1.39260
C          0.01530       -2.25940        0.73170
N          1.28830       -1.67640        1.21860
C          0.03370       -0.85960        1.20160
H          0.89460        1.85710        0.54910
H         -0.09370        1.96760       -0.92110
H         -0.86030        1.88450        0.67490
H         -0.08220       -0.39270       -2.13390
H         -0.91850       -2.77700       -1.17640
H          1.84500       -2.54020       -0.91670
H         -0.44070       -3.06730        1.29200
H          1.45500       -2.01110        2.16630
H         -0.39250       -0.54910        2.15010
