15
gdb 19002	5.15866	1.96837	1.70973	2.3026	65.06	-0.224	-0.0185	0.2056	761.5524	0.120908	-362.615769	-362.61009	-362.609146	-362.645414	23.093
O         -0.01490        0.00730       -0.04560
C         -0.00800        1.20900       -0.00300
C         -1.18890        2.19280        0.03270
N         -0.51210        3.50410        0.08110
C          0.71470        3.39940       -0.83330
C          1.45500        4.35800        0.11440
C          0.71280        3.33270        0.98790
C          1.15550        2.16660        0.03380
H         -1.81910        2.10760       -0.85830
H         -1.82000        2.04260        0.91450
H          0.61640        3.43840       -1.91980
H          2.54440        4.31040        0.11380
H          1.07160        5.37900        0.15130
H          0.61230        3.29220        2.07410
H          2.16900        1.76910        0.02040
