18
gdb 4134	3.38588	1.37688	1.30346	1.029	72.08	-0.2248	-0.0027	0.2222	1041.1251	0.151588	-381.048755	-381.039631	-381.038686	-381.083215	32.537
C         -0.23740        1.48170       -0.14930
N         -0.03930        0.04700        0.02050
C          1.30730       -0.45790       -0.20640
C          0.75630       -0.43460        1.17680
C          1.28030        0.48060        2.23030
C          0.56030        0.54120        3.55200
N          2.31170        1.18910        1.95460
O          2.65300        2.03850        3.01790
H          0.62300        2.09620        0.15060
H         -0.44620        1.67230       -1.20680
H         -1.11170        1.79680        0.42990
H          1.37870       -1.40280       -0.73940
H          2.09410        0.26000       -0.42460
H          0.35050       -1.35850        1.58520
H          1.27180        0.46870        4.37930
H          0.04920        1.50420        3.66370
H         -0.18110       -0.25550        3.63470
H          3.45360        2.46160        2.69000
