21
gdb 7551	3.47941	1.12035	1.08253	1.7685	75.23	-0.2228	0.0809	0.3037	1226.8565	0.186812	-366.229174	-366.219461	-366.218517	-366.263543	35.364
C         -0.30780        1.38530        0.07730
N         -0.04800       -0.03630        0.24130
C          1.24770       -0.54880       -0.19240
C          0.89590       -0.51970        1.26060
C          1.63590        0.44970        2.16820
C          0.43830       -1.80990        1.92660
C         -0.63620       -1.59680        2.99750
O         -1.08140       -2.81620        3.57250
H          0.58000        2.03090        0.15950
H         -0.74550        1.54720       -0.91330
H         -1.03880        1.71210        0.82430
H          1.23410       -1.48050       -0.75400
H          1.98910        0.17310       -0.53560
H          2.05730        1.29480        1.62030
H          0.98320        0.85040        2.95140
H          2.46520       -0.06540        2.66450
H          0.02690       -2.46880        1.15230
H          1.29490       -2.32930        2.37430
H         -0.24060       -1.01180        3.83420
H         -1.47150       -1.02640        2.56280
H         -1.49120       -3.33430        2.87240
