16
gdb 11293	4.85643	1.3883	1.18685	0.8302	66.97	-0.2605	0.0274	0.2879	1016.1927	0.129248	-383.707969	-383.700001	-383.699057	-383.740867	28.972
C          0.02860        1.53750       -0.04520
C          0.11630        0.03000       -0.04670
O          0.91040       -0.42480       -1.11980
C          1.30080       -1.73120       -0.75050
C          1.45480       -1.63840        0.79990
O          0.76660       -0.42900        1.13140
C          0.91510       -2.80030        1.49950
C          0.48150       -3.76950        2.06220
H          1.03320        1.96410        0.00320
H         -0.46770        1.88270       -0.95560
H         -0.54720        1.87420        0.82000
H         -0.88630       -0.43290       -0.10900
H          0.53210       -2.47110       -1.01230
H          2.23380       -1.98060       -1.25860
H          2.50660       -1.50310        1.07860
H          0.09910       -4.62170        2.56790
