16
gdb 12675	2.71336	2.30505	1.52784	3.2721	59.8	-0.2742	0.0017	0.2759	849.8856	0.130937	-420.92303	-420.915476	-420.914532	-420.954748	28.1
C          0.26600        1.59830        0.03820
C         -0.02670        0.09620        0.00750
C          0.68630       -0.62700       -1.15400
O          2.01140       -0.95600       -0.66590
C          2.01550       -0.92560        0.68120
O          2.99500       -1.06340        1.36090
C          0.60320       -0.65430        1.19410
O          0.62120        0.02990        2.41450
H          1.34310        1.79620        0.01700
H         -0.18510        2.09360       -0.82680
H         -0.13420        2.04700        0.94920
H         -1.10520       -0.07290       -0.04730
H          0.18340       -1.55760       -1.43930
H          0.81460       -0.00530       -2.04210
H          0.10700       -1.63580        1.30040
H          1.49200       -0.14140        2.80230
