16
gdb 17177	4.11644	1.82479	1.57816	0.5853	63.9	-0.2428	0.0537	0.2965	851.7219	0.12871	-383.62738	-383.620377	-383.619433	-383.658723	26.735
C         -0.04320        1.55960       -0.03690
C         -0.06710        0.02620       -0.05760
C         -1.45180       -0.53010        0.01530
O         -2.42770       -0.20720       -1.02860
C         -3.19390       -1.06290       -0.13990
C         -1.99270       -1.98930        0.21710
O         -2.15810       -1.85090        1.65650
C         -2.52640       -0.53210        1.16360
H          0.98060        1.93290       -0.12680
H         -0.63190        1.96630       -0.86350
H         -0.46240        1.94720        0.89720
H          0.40950       -0.34860       -0.97150
H          0.49740       -0.38450        0.78830
H         -4.23220       -1.28620       -0.38120
H         -1.66630       -2.94480       -0.19310
H         -2.83440        0.23520        1.87350
