17
gdb 7612	3.3692	1.5895	1.33698	2.3383	64.95	-0.2418	0.0218	0.2635	979.0741	0.140053	-401.028588	-401.019601	-401.018657	-401.061947	32.543
C          0.13110        1.29700       -0.35850
C          0.27830       -0.14090        0.06300
O          1.60460       -0.62910        0.31360
C          0.67810       -0.59390        1.41690
C          0.97970        0.33980        2.56240
C          0.16600       -1.96000        1.85620
N          0.56400       -2.98210        1.05290
O         -0.55490       -2.08790        2.82810
H          0.78350        1.96030        0.21120
H          0.38530        1.40120       -1.41850
H         -0.90590        1.62400       -0.22930
H         -0.33220       -0.84110       -0.51020
H          1.20230        1.35060        2.21990
H          0.12280        0.35990        3.23890
H          1.84230       -0.02800        3.12740
H          1.28770       -2.81540        0.37290
H          0.32170       -3.92190        1.31860
