13
gdb 18319	4.17766	2.13168	1.51351	4.0355	61.05	-0.2234	-0.0327	0.1907	778.1887	0.097112	-398.577094	-398.570933	-398.569989	-398.6074	23.349
O         -0.11640       -0.02950       -0.18130
C         -0.02680        1.15650        0.00420
N         -1.09720        2.04610        0.15560
C         -0.66810        3.34570        0.45750
C          0.64590        3.46210        0.21090
C          1.84910        3.73370        1.08480
O          2.11370        2.29130        1.07230
C          1.20700        2.09520       -0.05750
H         -2.05410        1.73090        0.14350
H         -1.34340        4.02830        0.95660
H          2.67840        4.27790        0.61740
H          1.67050        4.11730        2.09380
H          1.77090        1.88520       -0.97370
