14
gdb 11489	3.56076	1.41757	1.1421	4.4977	63.45	-0.2644	-0.0879	0.1764	1023.2532	0.105758	-378.698698	-378.690707	-378.689762	-378.732854	27.239
O         -0.61200        1.51180       -1.93060
C         -0.02500        1.66910       -0.89150
C          1.38110        2.23720       -0.78470
N          2.08300        1.69070        0.35780
C          2.92390        0.51860        0.11550
C          3.53290        1.85270        0.37350
C         -0.68410        1.33390        0.39000
N         -1.26020        1.07100        1.35740
H          1.87310        2.07850       -1.75800
H          1.27190        3.32250       -0.64420
H          2.90300       -0.23840        0.89290
H          2.98040        0.13320       -0.90110
H          3.99890        2.35830       -0.47030
H          3.96560        2.08470        1.34180
