17
gdb 11848	6.95112	1.05751	1.02858	2.5992	70.53	-0.2501	-0.0248	0.2253	1140.8196	0.141824	-363.830894	-363.823252	-363.822308	-363.863454	28.255
O          1.04590       -0.29950       -0.25140
C          0.48350        0.74410       -0.04130
C          1.14880        2.08450        0.07950
C          0.53940        3.24030       -0.78470
C          0.61010        4.13560        0.45620
C          1.27340        5.45360        0.54800
N         -0.18100        5.30920        0.78290
C          0.80000        2.91670        1.36100
H         -0.62650        0.78350        0.08590
H          2.22360        1.97230       -0.06940
H          1.09840        3.53730       -1.67500
H         -0.49600        3.02030       -1.07240
H          1.85150        5.71700        1.43000
H          1.61220        5.92190       -0.37330
H         -0.70310        5.62560       -0.03140
H         -0.14570        2.59810        1.81290
H          1.56690        2.96310        2.13640
