20
gdb 15708	3.19948	1.60911	1.23838	2.6164	70.3	-0.2494	0.0744	0.3238	1037.0171	0.177733	-386.145923	-386.137286	-386.136342	-386.179715	31.52
C          0.16500        1.60940       -0.23120
C         -0.03370        0.10730        0.00750
C          0.67480       -0.75550       -1.06400
C          2.07530       -1.02360       -0.45950
O          2.02590       -0.58710        0.89870
C          0.65650       -0.42420        1.27750
C          0.64710        0.42770        2.53740
O          1.34280       -0.21730        3.58880
H          1.22640        1.87700       -0.21630
H         -0.23930        1.89530       -1.20750
H         -0.34420        2.21310        0.52600
H         -1.10510       -0.11580        0.03600
H          0.13760       -1.69660       -1.21210
H          0.72960       -0.25310       -2.03320
H          2.33540       -2.08980       -0.50570
H          2.86990       -0.46190       -0.96210
H          0.22820       -1.40850        1.53580
H          1.08120        1.41450        2.32070
H         -0.38250        0.57660        2.88080
H          2.19870       -0.46810        3.22200
