19
gdb 9747	3.50559	1.62259	1.51428	1.9542	70.76	-0.2442	0.0283	0.2725	950.7639	0.165588	-365.092129	-365.083856	-365.082911	-365.124933	30.745
C          0.08530        1.59950       -0.07610
C          0.02960        0.06940       -0.07020
C         -1.37560       -0.53850        0.03030
C         -2.31330       -0.11630       -1.09650
C         -1.32970       -2.08480        0.23380
N         -1.87630       -2.33160        1.57720
C         -2.17940       -1.18950        2.03440
O         -1.97230       -0.07930        1.29390
H          1.12350        1.94360       -0.05020
H         -0.37740        2.02400       -0.97200
H         -0.42910        2.00810        0.79810
H          0.50190       -0.33040       -0.97700
H          0.61440       -0.31300        0.77510
H         -1.90590       -0.42820       -2.06400
H         -3.29210       -0.58760       -0.97000
H         -2.45640        0.96660       -1.11500
H         -1.92830       -2.61740       -0.51380
H         -0.30810       -2.47630        0.17060
H         -2.61340       -1.00210        3.01110
