16
gdb 14388	3.74343	2.24359	1.90328	0.6072	62.76	-0.2267	0.0722	0.2989	750.1497	0.129627	-383.664992	-383.658201	-383.657257	-383.69534	27.4
C          0.01570        1.55610        0.03550
C          0.05290        0.03940       -0.01200
O         -1.23920       -0.53470        0.11910
C          0.76780       -0.67280       -1.15840
C          2.23150       -0.78390       -0.70060
O          2.36420       -0.10790        0.55530
C          1.08530       -0.70880        0.90060
C          1.24420       -1.78830       -0.23050
H          1.02820        1.96190       -0.00840
H         -0.56900        1.95070       -0.80140
H         -0.44980        1.90530        0.96660
H         -1.65060       -0.14530        0.89850
H          0.46120       -0.73990       -2.19450
H          3.08450       -0.83910       -1.36370
H          0.92910       -0.84880        1.96950
H          1.17480       -2.86500       -0.27500
