18
gdb 14051	4.48139	1.60864	1.51021	2.348	66.97	-0.2436	0.0752	0.3187	903.1259	0.155049	-384.925807	-384.918486	-384.917542	-384.958245	27.086
C          0.00620        1.30320       -0.33740
C          1.44470        1.52730        0.16360
C          1.30980        0.11700        0.77730
C          2.15250       -1.03450        0.21770
C          1.97810       -2.09380        1.30570
O          2.02390       -1.35940        2.52610
C          1.45000       -0.07620        2.29940
O         -0.07930        0.03560        0.34320
H         -0.74930        2.01160        0.02160
H         -0.09960        1.19380       -1.42410
H          2.21410        1.63400       -0.60330
H          1.55490        2.33040        0.89550
H          1.80870       -1.34320       -0.77160
H          3.20330       -0.72930        0.15550
H          1.01190       -2.60990        1.19150
H          2.77250       -2.84410        1.33550
H          2.10590        0.67870        2.75010
H          0.45550        0.00030        2.75890
