14
gdb 20654	3.38181	2.29815	1.3798	3.1437	68.93	-0.2381	-0.0698	0.1683	846.4592	0.107634	-378.713559	-378.706634	-378.70569	-378.744686	25.823
C          0.01580        1.50280       -0.09610
C         -0.01900        0.01170        0.00320
C         -1.13670       -0.72100        0.17580
C         -1.03570       -2.15360        0.25590
N          0.05770       -2.82700        0.17580
O          1.22340       -2.08630       -0.00270
C          1.25480       -0.70240       -0.09470
N          2.36200       -0.10060       -0.25790
H          0.65940        1.91960        0.68510
H          0.46250        1.80880       -1.04730
H         -0.98630        1.92850       -0.00950
H         -2.11250       -0.25430        0.25590
H         -1.91940       -2.76940        0.39470
H          3.13370       -0.76800       -0.30220
