18
gdb 11917	4.44492	1.43787	1.23138	2.7787	67.41	-0.2571	0.0658	0.3229	1001.2533	0.154083	-384.930645	-384.923051	-384.922106	-384.962846	29.21
O         -0.00800        1.39580       -0.10480
C          0.00570       -0.01430        0.02050
C          0.60840       -0.54670        1.33540
C          0.04050       -1.97200        1.42760
C         -1.36930       -1.84510        0.83950
C         -2.23480       -3.00340        0.59690
O         -2.47460       -2.13190        1.70510
C         -1.43760       -0.53910        0.04610
H          0.90360        1.70150       -0.14380
H          0.54580       -0.46810       -0.82760
H          1.70200       -0.50970        1.35430
H          0.23360        0.07430        2.15740
H          0.63830       -2.65940        0.81660
H          0.00590       -2.37430        2.44250
H         -2.97980       -2.96720       -0.19800
H         -1.88670       -4.00420        0.85510
H         -2.05470        0.17990        0.59540
H         -1.86860       -0.65600       -0.95090
