14
gdb 4884	4.8775	1.49341	1.18015	5.2349	61.12	-0.1884	0.0442	0.2326	971.4829	0.10785	-415.901917	-415.894222	-415.893277	-415.934258	27.424
C         -0.12680        1.42250        0.16870
N         -0.09410        0.07410       -0.40440
C         -1.16770       -0.75600       -0.15870
C         -1.28930       -2.04570        0.20040
N         -2.66830       -2.33220        0.12890
C         -3.37360       -1.21540       -0.21930
O         -4.55400       -1.03800       -0.34980
O         -2.41140       -0.22350       -0.41370
H          0.73290        1.98180       -0.20660
H         -1.03570        1.92690       -0.16290
H         -0.10610        1.43030        1.26860
H          0.78210       -0.40290       -0.24160
H         -0.55330       -2.77890        0.47560
H         -3.11860       -3.20240        0.34610
