18
gdb 17321	2.83002	2.43067	1.75427	2.1048	72.11	-0.198	0.0679	0.2659	835.1267	0.152736	-343.872157	-343.864468	-343.863523	-343.903547	29.918
C         -0.22520        1.55260       -0.03290
N          0.17120        0.14930        0.08460
C          1.38900       -0.50650       -0.29200
C          2.70780        0.17410        0.22530
N          2.35980        1.44900        0.89880
C          2.19750        0.15610        1.60780
C          0.86420       -0.54680        1.12460
C          0.20560       -1.63040        1.92580
H          0.41290        2.09110       -0.73600
H         -1.26110        1.59030       -0.39420
H         -0.16760        2.06960        0.92710
H          1.38110       -1.26790       -1.06680
H          3.70480       -0.02110       -0.14720
H          3.23400        1.85890        1.22850
H          2.71550       -0.05430        2.53480
H         -0.31950       -1.21390        2.79460
H         -0.52470       -2.16240        1.31100
H          0.94260       -2.35050        2.29930
