17
gdb 3197	3.87658	3.32547	2.90946	1.6003	62.33	-0.2355	0.0828	0.3182	596.6758	0.15244	-309.733696	-309.728286	-309.727342	-309.76258	22.267
C         -0.02200        1.56890        0.00250
C          1.49060        1.96890       -0.02400
C          2.18100        0.59110       -0.03580
C          1.24070       -0.25500       -0.90570
C          0.03810        0.02160        0.02240
C          0.65270       -0.40350        1.36630
O          2.03150        0.00370        1.26690
H         -0.54880        1.96880        0.87360
H         -0.54600        1.92540       -0.88930
H          1.74510        2.55460       -0.91300
H          1.79550        2.53960        0.85580
H          3.24290        0.59520       -0.28460
H          1.10780        0.13530       -1.91840
H          1.53640       -1.30620       -0.94900
H         -0.90120       -0.47970       -0.21490
H          0.18060        0.09210        2.22400
H          0.60490       -1.48930        1.52590
