9
gdb 3896	6.03528	2.92428	1.96983	2.4177	46.66	-0.2701	-0.0861	0.184	567.5171	0.055941	-375.359188	-375.354066	-375.353122	-375.388412	17.987
O         -0.01860       -0.02540        0.00360
C         -0.00710        1.18160        0.00920
C         -1.25920        1.97770        0.03060
N         -1.33740        3.25690        0.03820
O         -0.10890        3.93130        0.02480
C          1.02730        3.21400        0.00570
N          1.17100        1.94570       -0.00270
H         -2.21240        1.45590        0.04110
H          1.88100        3.88960       -0.00230
