16
gdb 14112	3.98071	1.7498	1.37282	2.1892	65.94	-0.2498	-0.0277	0.2221	911.2866	0.128682	-383.725313	-383.717564	-383.71662	-383.757679	28.249
C          0.45970        0.55920       -1.03890
C         -0.13180        0.33500        0.33620
O          0.39280        0.72520        1.35750
C         -1.42150       -0.40140        0.40700
C         -2.32520       -0.62060        1.62580
C         -2.71260       -2.02330        1.04060
C         -1.79330       -1.73470       -0.15280
O         -2.23150       -0.53530       -0.77300
H          1.46360        0.97250       -0.93660
H          0.48820       -0.37010       -1.61630
H         -0.17290        1.25410       -1.60130
H         -1.75320       -0.68700        2.55150
H         -3.12860        0.10990        1.73670
H         -2.35990       -2.84960        1.66110
H         -3.76110       -2.18220        0.77920
H         -1.21080       -2.42190       -0.75710
