13
gdb 14591	4.09677	1.0915	0.86643	5.1235	64.86	-0.2736	-0.0377	0.2359	1216.0787	0.095293	-394.817372	-394.809334	-394.808389	-394.850785	27.018
O         -0.53540        0.91870        1.10360
C         -0.17650        1.42090        0.06820
N          1.05340        1.20910       -0.52290
C          2.03220        0.38710        0.00680
N          3.13500        0.25070       -0.60510
C          4.16580       -0.60990       -0.05500
C          3.85810       -1.29010        1.21460
N          3.58040       -1.80610        2.21070
H         -0.79830        2.11330       -0.52880
H          1.27280        1.67190       -1.39430
H          1.74110       -0.08590        0.94700
H          4.41880       -1.37390       -0.80060
H          5.07830       -0.01720        0.08610
