22
gdb 6560	3.72309	1.18019	1.13491	1.2746	78.17	-0.2566	0.0662	0.3228	1197.5305	0.198075	-350.20077	-350.191178	-350.190234	-350.23459	36.469
C          0.09400        1.55860        0.06090
C          0.02640        0.03100        0.00550
C          0.68950       -0.58320        1.24620
O         -1.37590       -0.27780        0.01070
C          0.67890       -0.53900       -1.27590
C          0.05280       -0.06310       -2.56980
C          0.64560        1.08280       -3.35310
C          0.74030       -0.32570       -3.88520
H          1.13250        1.90270        0.05380
H         -0.42330        1.99830       -0.79400
H         -0.38540        1.91960        0.97530
H          0.19240       -0.22980        2.15410
H          0.62180       -1.67780        1.22290
H          1.75050       -0.31930        1.30590
H         -1.46320       -1.23690        0.04130
H          1.75180       -0.30590       -1.27230
H          0.60940       -1.63640       -1.22150
H         -1.03070       -0.12950       -2.57380
H         -0.02620        1.77730       -3.84590
H          1.55390        1.54130       -2.97530
H          1.71170       -0.81000       -3.86140
H          0.13360       -0.59660       -4.74240
