14
gdb 3718	6.94839	1.82223	1.58521	3.2791	58.51	-0.2544	-0.0084	0.246	781.6857	0.11437	-324.576188	-324.569714	-324.56877	-324.607192	23.027
C          0.09480        1.55140        0.14410
C         -0.08970        0.03900       -0.06540
C          0.64450       -0.48750       -1.26210
C          0.15130       -0.95470       -2.43990
O          1.14040       -1.32200       -3.26980
N          2.35880       -1.09950       -2.63830
C          2.05290       -0.60970       -1.46360
H          1.15070        1.80660        0.27900
H         -0.27420        2.11350       -0.71910
H         -0.44890        1.88950        1.03140
H          0.24630       -0.49310        0.83300
H         -1.15600       -0.18830       -0.17170
H         -0.85130       -1.08500       -2.81810
H          2.85240       -0.35670       -0.78020
