13
gdb 868	7.08496	2.09405	1.63277	2.3274	55.95	-0.1961	0.0513	0.2474	726.3185	0.103349	-340.685408	-340.678933	-340.677989	-340.715468	23.91
C         -0.06020        1.50470        0.05050
C         -0.00580        0.01940       -0.03410
C         -0.02720       -0.85400       -1.08310
N          0.04860       -2.17250       -0.65100
C          0.11440       -2.08020        0.64670
O          0.20190       -3.09170        1.52870
N          0.08720       -0.79850        1.09470
H          0.83520        1.92980        0.52200
H         -0.13330        1.92540       -0.95520
H         -0.92840        1.85950        0.62070
H         -0.09290       -0.61650       -2.13410
H          0.20620       -3.90310        1.00560
H          0.12720       -0.50790        2.05680
