16
gdb 14409	3.33123	2.14633	1.75537	3.7188	68.89	-0.2325	0.0106	0.2431	806.0646	0.130989	-346.580539	-346.573799	-346.572855	-346.611253	26.301
C         -0.06900        1.54390       -0.05670
C          0.05140        0.05810        0.01170
C          0.59290       -1.01450       -0.87600
C          1.33760       -1.69770        0.27400
C          0.35360       -0.94590        1.21290
C         -1.02100       -1.54940        0.86190
O         -1.91260       -2.01430        1.51650
C         -0.90980       -1.03230       -0.53480
H          0.87630        2.03250        0.20460
H         -0.34270        1.86420       -1.06710
H         -0.83790        1.91270        0.63090
H          0.89020       -0.93110       -1.91460
H          1.33920       -2.79210        0.32630
H          2.35940       -1.31950        0.36390
H          0.60280       -0.68750        2.23860
H         -1.67330       -0.92090       -1.29280
