14
gdb 2515	2.99604	2.30106	1.38386	2.5765	58.27	-0.2805	-0.0514	0.2291	846.3506	0.111493	-324.603415	-324.595523	-324.594579	-324.636101	26.521
C          0.06570        1.51890        0.08480
C          0.16670       -0.00310       -0.02030
C          0.67390       -0.48610       -1.39320
C          0.97000       -1.99830       -1.42590
O          1.06030       -2.67020       -0.43720
C         -0.22910       -0.14610       -2.49380
N         -0.95330        0.09580       -3.36160
H          1.04010        1.99520       -0.06990
H         -0.62860        1.92710       -0.65610
H         -0.29280        1.80950        1.07610
H          0.85300       -0.40310        0.73080
H         -0.80600       -0.46650        0.17290
H          1.63990       -0.00280       -1.61550
H          1.11930       -2.41750       -2.44250
