16
gdb 12237	3.30895	1.55981	1.18176	3.0118	60.68	-0.2752	0.0038	0.279	1006.2062	0.129834	-420.902044	-420.893898	-420.892954	-420.934955	29.073
C         -0.27920        1.54020        0.18970
C         -0.06790        0.04360       -0.01310
C          0.52860       -0.53100       -1.32240
C          1.10720        0.39550       -2.37400
O          1.87010       -0.32950       -3.31680
O          1.62710       -1.14380       -0.54800
C          1.17120       -0.59150        0.62630
O          1.67220       -0.65710        1.70140
H          0.60460        2.12350       -0.08100
H         -1.12420        1.90090       -0.40400
H         -0.49720        1.73850        1.24270
H         -0.96470       -0.50620        0.28900
H         -0.05740       -1.32220       -1.79690
H          0.29560        0.88020       -2.92720
H          1.70440        1.18360       -1.89160
H          2.56210       -0.78690       -2.82480
