15
gdb 4796	5.06595	1.37936	1.0917	2.1848	63.98	-0.1699	0.0672	0.2372	1032.7932	0.118538	-399.81409	-399.805888	-399.804944	-399.846642	29.547
C         -0.60880        0.60600        0.28400
O          0.59220        0.81380       -0.43970
C          0.93680       -0.19150       -1.27390
C          0.36000       -1.40710       -1.58040
C          1.22460       -2.01380       -2.54750
O          1.06070       -3.23100       -3.14670
C          2.27480       -1.17010       -2.79370
N          2.07850       -0.04550       -1.99470
H         -1.46280        0.48950       -0.39510
H         -0.53540       -0.28370        0.92210
H         -0.75260        1.49100        0.90490
H         -0.55230       -1.81490       -1.17550
H          0.25340       -3.62740       -2.80940
H          3.12330       -1.26310       -3.44780
H          2.67640        0.75960       -1.94360
