13
gdb 678	6.23318	4.54157	3.29214	2.8893	49.31	-0.2391	0.0757	0.3149	447.8562	0.110626	-286.460642	-286.455788	-286.454844	-286.48866	18.366
C         -0.03320        1.50470       -0.02490
O          1.03370        1.95620        0.80380
C          2.05010        0.96030        0.86850
C          1.36030       -0.35280        0.56670
N          0.13660       -0.54190        1.37370
C          0.03750       -0.00720       -0.00060
H         -0.96300        1.90970        0.38770
H          0.07990        1.86250       -1.06150
H          2.84190        1.14080        0.12290
H          2.49190        1.00700        1.86920
H          1.93620       -1.21010        0.23530
H         -0.11570       -1.52760        1.36150
H         -0.43730       -0.58990       -0.78260
