20
gdb 12830	3.0578	2.19392	1.67607	0.3925	80.96	-0.2199	0.024	0.2439	878.8795	0.178442	-311.860632	-311.853262	-311.852318	-311.891662	29.77
C         -0.10480        1.57300       -0.14240
C         -0.04450        0.04610       -0.03610
C          1.15380       -0.55920       -0.86420
C          2.00220       -0.61730        0.46280
C          0.67400       -0.50530        1.17430
C         -0.12820       -1.09360        2.05410
C         -1.57830       -0.91710        1.60440
C         -1.44030       -0.61160        0.07600
H          0.88390        2.02860       -0.02270
H         -0.49390        1.87640       -1.12150
H         -0.76050        1.99690        0.62580
H          0.93110       -1.56060       -1.24070
H          1.55380        0.05600       -1.67530
H          2.60450       -1.50860        0.65300
H          2.64150        0.26530        0.56790
H          0.15810       -1.69430        2.91010
H         -2.17370       -1.81800        1.78900
H         -2.08650       -0.10110        2.13760
H         -2.25330        0.01350       -0.30730
H         -1.45980       -1.55620       -0.47900
