16
gdb 10845	4.82586	1.48886	1.18243	3.8102	61.16	-0.2385	0.0532	0.2916	965.61	0.133012	-417.103899	-417.09621	-417.095266	-417.13594	28.471
O         -0.12230        1.45900        0.09510
C          0.01470        0.05330        0.00680
C          0.75170       -0.52280        1.22120
N          0.70230       -1.97180        1.16930
C         -0.39670       -2.69420        0.74680
O         -0.50200       -3.89320        0.93820
N         -1.33100       -1.97310        0.03490
C         -1.39710       -0.52510       -0.03810
H          0.74740        1.85640       -0.01130
H          0.54840       -0.24520       -0.90740
H          1.80000       -0.20120        1.21140
H          0.28940       -0.10800        2.13070
H          1.30680       -2.50350        1.77450
H         -2.15320       -2.50970       -0.18780
H         -1.97410       -0.08360        0.78910
H         -1.88520       -0.22820       -0.97140
