20
gdb 6528	2.731	1.66756	1.42455	1.9339	71.4	-0.2354	0.0535	0.289	1002.7642	0.174727	-386.127471	-386.118083	-386.117139	-386.160731	35.563
C          0.10930        1.45790        0.30160
C          0.04290       -0.04440        0.09860
C         -1.33140       -0.54390       -0.31140
C          1.26250       -0.72780       -0.50560
C          0.97260       -0.90990        0.95250
O          1.85870       -0.25460        1.82250
C          0.54920       -2.24330        1.52180
O         -0.01570       -2.06750        2.82370
H          1.08820        1.76380        0.67320
H         -0.09120        1.98570       -0.63800
H         -0.64230        1.78760        1.02960
H         -1.65470       -0.04830       -1.23470
H         -1.35210       -1.62020       -0.50190
H         -2.08690       -0.32030        0.45300
H          1.10620       -1.56910       -1.17460
H          2.12240       -0.11240       -0.74850
H          1.48510       -0.37760        2.70570
H         -0.13380       -2.78130        0.85420
H          1.43550       -2.86800        1.67360
H         -0.86060       -1.61810        2.71260
