20
gdb 10532	2.68379	1.34868	1.04429	2.6529	71.32	-0.2588	0.0706	0.3294	1185.1741	0.175534	-386.113631	-386.104061	-386.103117	-386.148595	34.346
O         -2.84270        0.62390       -2.17190
C         -2.48350       -0.71260       -1.84880
C         -1.89250       -0.70050       -0.44170
C         -1.56190       -2.07940        0.10680
C         -0.46110       -2.83070       -0.60900
O          0.73180       -2.05960       -0.53620
C         -1.65740       -2.28500        1.59910
C         -2.68210       -2.91320        0.68710
H         -3.17940        0.63470       -3.07240
H         -3.36030       -1.37990       -1.87890
H         -1.74820       -1.10540       -2.56840
H         -0.98940       -0.08220       -0.44370
H         -2.61660       -0.20870        0.21780
H         -0.32660       -3.81620       -0.13450
H         -0.74400       -3.01410       -1.65810
H          1.39350       -2.47590       -1.09610
H         -0.92630       -2.93270        2.07080
H         -1.96340       -1.44220        2.20920
H         -3.68180       -2.49210        0.67390
H         -2.65470       -3.98940        0.54860
