15
gdb 19835	3.40383	2.73034	1.8471	2.4771	64.85	-0.2396	-0.0144	0.2252	721.251	0.121979	-362.626861	-362.621102	-362.620157	-362.65644	23.537
N         -0.05240        1.47970        0.00020
C          1.27900        0.82410       -0.00200
C          2.14320        0.80310        1.19490
C          1.82500        0.16430        2.32990
C          0.56830       -0.59560        2.47240
O         -0.68580        0.13160        2.41280
C         -0.33970       -0.69420        1.30420
C          0.00730        0.02140        0.02840
H         -0.26700        1.79280        0.94780
H          1.79630        0.94470       -0.95020
H          3.09590        1.32010        1.11880
H          2.51090        0.16520        3.17110
H          0.55580       -1.38810        3.21800
H         -0.95260       -1.58730        1.19410
H         -0.32390       -0.47060       -0.88190
