10
gdb 23807	3.42891	2.36438	1.39942	4.7386	52.55	-0.2772	-0.0916	0.1857	762.171	0.05984	-458.556856	-458.550897	-458.549953	-458.587195	21.752
F          0.02850        0.07370        0.17290
C         -0.03460        1.38220        0.05650
C         -1.19440        2.05590       -0.00920
C         -1.11310        3.48220       -0.13540
N         -0.02230        4.16770       -0.19090
O          1.16570        3.45150       -0.12130
C          1.25750        2.07470        0.00170
O          2.33620        1.55740        0.05240
H         -2.15070        1.54880        0.03100
H         -2.01460        4.08370       -0.19330
