20
gdb 10723	3.27898	1.51304	1.2741	1.9715	70.11	-0.2598	0.0803	0.3401	1047.4446	0.175519	-386.122311	-386.113276	-386.112332	-386.155634	33.898
C          0.54780        1.53170       -0.17770
C          0.02400        0.10400        0.06450
C          0.19900       -0.74690       -1.19940
C          0.67960       -0.49590        1.30830
C          0.14230        0.01640        2.64520
O          0.96820       -0.35370        3.72540
C          1.36790       -1.79420        1.31710
O          2.12020       -0.56630        1.28970
H          1.62410        1.50840       -0.37340
H          0.05080        1.97930       -1.04350
H          0.37650        2.18890        0.67940
H         -1.05160        0.16570        0.28460
H          1.26030       -0.88310       -1.43350
H         -0.26060       -1.73400       -1.09470
H         -0.26740       -0.25080       -2.05590
H          0.01900        1.11000        2.59390
H         -0.85010       -0.41320        2.82560
H          1.87310       -0.21570        3.41250
H          1.43350       -2.34450        2.25270
H          1.43570       -2.38940        0.41110
