15
gdb 14670	10.29045	0.59394	0.57801	4.9491	71.77	-0.2615	0.015	0.2765	1809.9097	0.117115	-362.640483	-362.631158	-362.630214	-362.676852	30.612
O          0.19620        0.65920        1.06060
C         -0.07730        0.20210       -0.25750
C         -1.40470       -0.39900       -0.29950
C         -2.50370       -0.88560       -0.35730
C         -3.82100       -1.50460       -0.39700
C         -3.85120       -2.84050        0.39110
C         -5.16840       -3.47080        0.35160
N         -6.21750       -3.95310        0.30660
H          1.07350        1.05550        1.05110
H         -0.03780        1.02910       -0.98520
H          0.66560       -0.54380       -0.58450
H         -4.57340       -0.82560        0.01980
H         -4.11840       -1.69390       -1.43480
H         -3.11130       -3.53230       -0.02330
H         -3.57080       -2.66100        1.43370
