17
gdb 15692	3.03465	1.9855	1.38297	2.8153	65.24	-0.2273	0.023	0.2503	921.382	0.143407	-401.033398	-401.025471	-401.024527	-401.065951	28.579
C         -0.45250        1.04900        0.06090
O          0.09110       -0.25790       -0.03790
C          0.89860       -0.46310       -1.18570
C          1.56820       -1.83230       -1.06950
C          0.56660       -2.80490       -1.73060
N         -0.11040       -1.94360       -2.68710
C         -0.01170       -0.60580       -2.42890
O         -0.57670        0.28770       -3.02580
H          0.34630        1.80510        0.10930
H         -1.10530        1.28740       -0.78550
H         -1.02620        1.07840        0.99020
H          1.60520        0.36750       -1.31440
H          2.50610       -1.82980       -1.63170
H          1.78290       -2.08440       -0.03010
H          1.06610       -3.63970       -2.23160
H         -0.13480       -3.21900       -0.99490
H         -0.79730       -2.27990       -3.34410
