17
gdb 7083	6.75948	0.82159	0.78127	0.2814	66.73	-0.2439	-0.0428	0.201	1394.647	0.138091	-400.991697	-400.982372	-400.981428	-401.026811	31.37
C         -0.22860        1.56450        0.08220
N         -0.04700        0.11550        0.09020
C          0.69220       -0.32980        1.25890
C          2.16390        0.04960        1.15710
O          2.87620        0.26610        2.10050
C         -1.29940       -0.58710       -0.12980
C         -1.75700       -0.45680       -1.57680
O         -2.90520       -0.48060       -1.93080
H          0.74150        2.06560        0.15130
H         -0.69980        1.87940       -0.85370
H         -0.85750        1.91940        0.91840
H          0.29550        0.03800        2.22100
H          0.66550       -1.42760        1.29730
H          2.53810        0.08230        0.10840
H         -1.13750       -1.66060        0.04000
H         -2.12420       -0.27460        0.53380
H         -0.91320       -0.36360       -2.29820
