16
gdb 20846	5.31762	1.26452	1.09257	2.6084	66.95	-0.2147	0.0433	0.258	1083.2568	0.131466	-379.948469	-379.940493	-379.939549	-379.981222	29.146
C          0.03010        1.43140       -0.42580
C         -0.09760        0.08550        0.30660
C         -1.44790       -0.54740        0.15090
N         -2.26810       -0.64450        1.19130
N         -3.38520       -1.24020        0.68940
C         -3.27510       -1.51360       -0.62750
O         -4.31250       -2.11130       -1.25410
C         -2.03010       -1.08140       -1.03150
H          1.02870        1.85740       -0.28650
H         -0.13920        1.31710       -1.50140
H         -0.70370        2.14980       -0.04810
H          0.67440       -0.60140       -0.06290
H          0.08480        0.22480        1.37650
H         -4.16920       -1.43690        1.28690
H         -4.08070       -2.23770       -2.17920
H         -1.60470       -1.14350       -2.02010
