13
gdb 9036	5.09196	1.18824	1.03069	2.0321	62.4	-0.2697	-0.0784	0.1913	1065.5828	0.094768	-394.804191	-394.796091	-394.795147	-394.837277	28.057
N         -0.20970        0.72150       -0.96390
C         -0.24250       -0.30200       -0.07250
C          1.09850       -0.94880        0.16180
O          2.09090       -0.62410       -0.44060
N         -1.20520       -0.78820        0.62720
C         -2.53250       -0.20010        0.53030
C         -3.06360       -0.07040       -0.83760
N         -3.42340        0.04630       -1.93050
H          0.66290        0.81580       -1.46570
H         -1.04690        1.02010       -1.43890
H          1.07430       -1.74280        0.92970
H         -3.22930       -0.81560        1.10740
H         -2.54590        0.80350        0.98340
