15
gdb 15739	5.7475	1.16118	1.01879	3.9653	64.88	-0.2464	-0.0251	0.2213	1106.8126	0.119557	-395.968076	-395.960084	-395.95914	-396.00185	27.727
N          0.01330        1.22340        0.63690
C         -0.01950        0.03940        0.17750
N         -1.20820       -0.53560       -0.29710
C         -2.45930        0.03910       -0.47370
O         -2.77400        1.17500       -0.24950
C          1.12700       -0.92960        0.06280
C          2.25280       -0.89960        1.02040
N          1.27410       -2.00040        1.08100
H          0.97080        1.46260        0.89330
H         -1.14620       -1.51010       -0.55250
H         -3.16290       -0.72180       -0.87200
H          1.31670       -1.28520       -0.94910
H          3.24520       -1.18490        0.68540
H          2.23570       -0.15370        1.81010
H          0.62870       -1.82080        1.84860
