20
gdb 16891	3.63361	1.79372	1.3919	0.2741	80.52	-0.2257	0.035	0.2606	967.3394	0.17902	-311.883511	-311.876035	-311.875091	-311.914909	29.714
C          0.55330        1.33430        0.14340
C         -0.03060       -0.04720        0.02010
C          0.04540       -0.75220       -1.11150
C         -0.54190       -2.12210       -1.32030
C         -0.87730       -2.85010       -0.03090
C          0.17890       -3.01740        1.03480
C         -0.97480       -2.06970        1.25710
C         -0.73920       -0.57000        1.24880
H          1.31470        1.37430        0.93350
H          1.01420        1.66470       -0.79140
H         -0.21630        2.06730        0.42030
H          0.54770       -0.31170       -1.97080
H         -1.45460       -2.02980       -1.92890
H          0.14600       -2.72870       -1.92650
H         -1.56880       -3.67890       -0.15080
H          0.20170       -3.94390        1.59820
H          1.15560       -2.58330        0.84460
H         -1.72820       -2.39660        1.96810
H         -0.17570       -0.27490        2.14640
H         -1.70670       -0.05200        1.33710
