10
gdb 4640	5.62468	1.50253	1.18577	4.6225	52.96	-0.2747	-0.0855	0.1892	889.3559	0.060056	-454.46467	-454.458458	-454.457514	-454.495506	21.741
O         -0.03000       -0.06180       -0.00050
C         -0.01850        1.14460        0.00910
C          1.18510        1.96610        0.00210
C          1.33170        3.29990        0.01110
O          2.65420        3.61090       -0.00130
C          3.35810        2.41120       -0.01890
O          4.53630        2.31290       -0.03300
O          2.44550        1.39860       -0.01670
H         -0.94740        1.75360        0.02440
H          0.62360        4.11130        0.02570
