18
gdb 14667	13.49357	0.57779	0.56173	0.8385	84.6	-0.2462	0.0439	0.2901	1955.8434	0.151045	-310.618097	-310.608179	-310.607235	-310.656505	33.958
C          0.04250        1.56610        0.01000
C         -0.00520        0.02710        0.00210
C         -1.36550       -0.50200        0.01230
C         -2.50180       -0.90270        0.02110
C         -3.85900       -1.43440        0.03120
C         -3.88360       -2.98670        0.02320
C         -5.23950       -3.51940        0.03330
C         -6.37040       -3.92660        0.04180
H          1.07910        1.91600        0.00200
H         -0.46650        1.97470       -0.86710
H         -0.44970        1.96510        0.90110
H          0.52680       -0.35010       -0.88090
H          0.54360       -0.35960        0.87060
H         -4.40170       -1.07830        0.91490
H         -4.41840       -1.06900       -0.83810
H         -3.34490       -3.34670       -0.86080
H         -3.32820       -3.35600        0.89300
H         -7.36290       -4.30230        0.04920
