18
gdb 275	7.1604	1.71893	1.49915	1.3758	60.39	-0.2613	0.0739	0.3352	858.1408	0.164563	-272.84456	-272.836468	-272.835524	-272.876391	28.823
C          0.02190        1.56860       -0.00910
C          0.00120        0.03810       -0.00340
C         -1.41410       -0.54560        0.04560
C         -1.44860       -2.07800       -0.02200
C         -2.86620       -2.63660        0.10590
O         -0.81090       -2.56520       -1.20320
H          1.04600        1.95360       -0.04020
H         -0.50970        1.96960       -0.87980
H         -0.46010        1.97780        0.88610
H          0.50930       -0.35070       -0.89220
H          0.57140       -0.33360        0.85840
H         -1.92280       -0.21790        0.96240
H         -2.00970       -0.14490       -0.78980
H         -0.83400       -2.47850        0.79490
H         -3.51030       -2.24680       -0.69290
H         -2.85340       -3.72730        0.03130
H         -3.31970       -2.35750        1.06260
H         -1.33910       -2.27510       -1.95570
