16
gdb 20541	4.41334	1.50657	1.21748	3.7056	65.92	-0.2677	-0.0359	0.2318	989.8668	0.129816	-379.909934	-379.902224	-379.90128	-379.942396	28.053
C         -0.06260        1.57410        0.46330
C         -0.06720        0.10250        0.03100
C          0.95880       -0.72600        0.82640
C         -1.43640       -0.49990        0.13900
C         -2.60870       -0.03300        0.64450
O         -3.55280       -0.96420        0.51080
N         -2.92070       -2.07840       -0.11980
N         -1.71740       -1.77680       -0.31500
H          0.93480        2.00400        0.33650
H         -0.76430        2.17110       -0.12770
H         -0.33330        1.67540        1.52060
H          0.22020        0.05450       -1.02780
H          1.96830       -0.33210        0.67310
H          0.73820       -0.69130        1.89880
H          0.94410       -1.77210        0.51070
H         -2.90150        0.89640        1.10310
