18
gdb 12220	2.84637	1.65784	1.41417	3.7992	68.38	-0.2394	-0.0163	0.2232	964.7875	0.152269	-384.935852	-384.92731	-384.926365	-384.968967	31.223
C         -0.66960        1.28180       -0.09270
C         -0.01680       -0.09170       -0.05270
C          1.28050       -0.35450       -0.86270
O          2.01200        0.85390       -0.98090
C          1.77690       -1.25590        0.29920
C          0.71580       -0.60680        1.24500
C          1.28350        0.48540        2.11580
O          0.98960        0.64820        3.27440
H          0.05720        2.07830        0.07870
H         -1.13240        1.46000       -1.06890
H         -1.45240        1.35800        0.66910
H         -0.74810       -0.85830       -0.32920
H          1.15750       -0.83080       -1.84440
H          2.89230        0.64030       -1.30660
H          1.56850       -2.31510        0.13050
H          2.82910       -1.14190        0.57650
H          0.13610       -1.28020        1.87890
H          2.01570        1.15010        1.60810
