10
gdb 4739	6.96497	1.38577	1.15581	3.6918	58.43	-0.2505	-0.0693	0.1811	910.9971	0.061569	-413.493221	-413.486966	-413.486022	-413.523728	22.617
O          0.11930        1.33810       -0.08520
C          0.06950        0.00020       -0.07040
C         -0.03830       -0.84740       -1.13520
O         -0.05120       -2.11880       -0.63540
C          0.04930       -1.96480        0.69970
N          0.12460       -0.72260        1.09300
C          0.06230       -3.12990        1.50680
N          0.07280       -4.08110        2.16530
H          0.19570        1.63420        0.83070
H         -0.10950       -0.73130       -2.20070
