18
gdb 16892	3.79686	1.82175	1.38991	1.8059	73.43	-0.2332	0.0299	0.2631	930.7568	0.154812	-347.811619	-347.80437	-347.803426	-347.842915	28.133
C          0.40160        1.45180        0.07650
C         -0.04820        0.01860       -0.00970
C          0.00810       -0.67700       -1.14650
C         -0.42510       -2.10700       -1.31730
C         -0.72620       -2.81340       -0.01680
O          0.33990       -2.87030        0.93740
C         -0.80210       -2.06390        1.24400
C         -0.57900       -0.57060        1.27660
H          1.22200        1.56450        0.79730
H          0.74480        1.82650       -0.89130
H         -0.40940        2.10430        0.42630
H          0.39220       -0.19020       -2.04060
H         -1.32200       -2.15500       -1.95330
H          0.34590       -2.67110       -1.86120
H         -1.28910       -3.74340       -0.10520
H         -1.41910       -2.46140        2.05110
H          0.10460       -0.33020        2.10420
H         -1.53010       -0.08210        1.53800
