15
gdb 16926	3.7883	2.21729	2.00395	2.6548	60.51	-0.2638	0.0222	0.286	728.648	0.122278	-399.822038	-399.816225	-399.815281	-399.851878	23.298
N         -0.05640        1.27090       -0.01550
C         -0.01850        0.01290       -0.01340
O          1.09760       -0.78850       -0.00500
C          0.56490       -2.13820        0.03830
C          0.06800       -2.39430        1.47330
C         -1.23950       -1.54430        1.46070
C         -1.18050       -0.96330        0.02290
O         -0.61300       -2.05910       -0.72450
H          0.88590        1.66540       -0.00770
H          1.28820       -2.82260       -0.39950
H         -0.13210       -3.45690        1.62600
H          0.79870       -2.06400        2.21310
H         -2.12750       -2.16870        1.57320
H         -1.26050       -0.76270        2.22170
H         -2.10720       -0.61270       -0.42060
