15
gdb 11980	2.77098	2.29522	1.79792	3.3562	60.83	-0.2403	-0.0187	0.2216	794.7386	0.117277	-399.772219	-399.764568	-399.763624	-399.803763	28.528
C         -0.05510        1.63640       -0.06640
C          0.02760        0.12020       -0.04760
O         -1.24500       -0.47270        0.15750
C          0.73260       -0.63420       -1.18000
C          2.17410       -0.37860       -1.19470
N          1.66770       -1.38000       -0.20430
C          1.06880       -0.59800        0.86090
O          1.23170       -0.67170        2.03900
H          0.90180        2.10010       -0.32120
H         -0.80750        1.95580       -0.79360
H         -0.35070        2.00520        0.92180
H         -1.49810       -0.31300        1.07430
H          0.20500       -1.19170       -1.94300
H          2.77150       -0.84560       -1.97040
H          2.57690        0.56080       -0.82550
