20
gdb 9276	5.9099	0.73128	0.68281	3.0643	72.83	-0.2491	-0.02	0.2291	1610.6926	0.174007	-386.149556	-386.139409	-386.138465	-386.185651	34.771
C         -0.06700        1.58840       -0.17500
C          0.05640        0.06540       -0.03860
C          0.73540       -0.53750       -1.27080
O         -0.06630       -0.25540       -2.40790
C          0.80960       -0.36380        1.23210
C          0.11700        0.04700        2.54420
C          0.78810       -0.58090        3.74400
O          1.23820        0.02280        4.68300
H          0.92210        2.06240       -0.14690
H         -0.53690        1.84300       -1.12720
H         -0.66800        2.02180        0.62910
H         -0.95530       -0.36290        0.00110
H          1.74620       -0.10920       -1.37960
H          0.85280       -1.62460       -1.13230
H          0.39820       -0.56520       -3.19040
H          0.92930       -1.45590        1.22470
H          1.82390        0.05730        1.21620
H          0.10300        1.13020        2.68500
H         -0.92350       -0.31060        2.52500
H          0.84950       -1.69510        3.69920
