17
gdb 1328	4.56847	1.69259	1.58646	3.3742	66.52	-0.243	-0.0155	0.2275	857.5795	0.146416	-309.727166	-309.719292	-309.718348	-309.75884	28.845
C         -0.06130        1.54980       -0.07920
C          0.00920        0.03420       -0.01570
C         -1.23190       -0.65810       -0.54910
C          1.32580       -0.64320       -0.20600
C          0.68150       -0.66070        1.17970
C          1.31360        0.09390        2.28170
O          1.26310       -0.23030        3.44400
H          0.86730        2.02950        0.23850
H         -0.25970        1.86910       -1.10870
H         -0.87200        1.93540        0.54880
H         -1.40250       -0.38660       -1.59750
H         -1.14080       -1.74690       -0.49510
H         -2.12140       -0.36550        0.01970
H          1.36910       -1.58820       -0.73640
H          2.20860       -0.02200       -0.32510
H          0.22570       -1.58950        1.50690
H          1.87420        1.00530        1.97110
