17
gdb 20905	5.0355	1.3662	1.18433	0.4441	71.59	-0.2436	0.0063	0.2499	1063.2434	0.143269	-360.065514	-360.057329	-360.056384	-360.099462	28.456
C         -0.06770        1.51880        0.04050
C          0.03690       -0.00640        0.02080
N          0.74100       -0.52980        1.18120
N          2.05700       -0.69920        1.19230
C          2.30830       -1.10250        2.43870
C          1.10130       -1.15760        3.15770
C          0.83400       -1.55500        4.57330
N          0.11990       -0.78170        2.33030
H          0.92700        1.97260        0.04400
H         -0.60490        1.86780       -0.84650
H         -0.60920        1.85580        0.92840
H         -0.95320       -0.46730        0.01940
H          0.58710       -0.35140       -0.85700
H          3.31330       -1.33710        2.75320
H          1.38730       -0.92490        5.27770
H         -0.23140       -1.45970        4.79200
H          1.13120       -2.59220        4.76210
