16
gdb 14496	3.68151	2.03131	1.55838	2.9641	69.39	-0.2667	0.0267	0.2934	829.4869	0.132394	-342.739328	-342.732384	-342.73144	-342.770115	27.262
N         -0.00550        1.47040       -0.03970
C         -0.00600        0.01640       -0.00960
C          0.95580       -0.54060       -0.97540
N          1.73150       -0.89850       -1.75630
C         -0.05940       -0.67390        1.40010
C         -1.51690       -0.14040        1.52890
C         -1.40020       -0.70090        0.08050
C         -0.65980       -1.92380        0.69450
H          0.92550        1.82190        0.16660
H         -0.23330        1.79860       -0.97430
H          0.73660       -0.64640        2.14500
H         -2.16480       -0.70860        2.19880
H         -1.64170        0.93430        1.63370
H         -2.15800       -0.70460       -0.70380
H         -0.00320       -2.49840        0.03900
H         -1.26750       -2.57420        1.32530
