15
gdb 535	9.17284	1.64437	1.5162	3.6925	54.88	-0.2492	0.034	0.2832	810.6686	0.131133	-287.724713	-287.717322	-287.716377	-287.756983	24.754
C          0.00400        1.50480       -0.12200
C         -0.10900       -0.02160       -0.10780
C         -1.46550       -0.49730        0.42520
N         -1.59050       -1.94620        0.46180
C         -2.38070       -2.64870       -0.39350
O         -3.09470       -2.16770       -1.24790
H          0.97750        1.82580       -0.50360
H         -0.76760        1.95190       -0.75790
H         -0.11330        1.92250        0.88430
H          0.03010       -0.42170       -1.11860
H          0.69360       -0.44760        0.50910
H         -1.63590       -0.09380        1.43170
H         -2.27410       -0.13960       -0.21690
H         -1.01600       -2.46650        1.10590
H         -2.30540       -3.74030       -0.21450
