14
gdb 18900	3.2382	2.58109	1.83573	0.1047	60.25	-0.2157	0.0632	0.2789	726.9541	0.105752	-382.411172	-382.404694	-382.40375	-382.44125	26.301
O          0.18140        1.38400       -0.15490
C          0.05600        0.02610       -0.04420
C          0.85500       -1.01880       -0.78930
C          0.86160       -1.00060        0.74720
C         -0.35890       -1.96350        0.75610
C         -0.35310       -1.99730       -0.78020
C         -1.18990       -0.96970       -0.02310
O         -2.54370       -0.79110        0.06190
H         -0.02540        1.78050        0.69970
H          1.67440       -0.87580       -1.48110
H          1.69180       -0.86340        1.42810
H         -0.69010       -2.71710        1.45810
H         -0.65860       -2.79070       -1.45010
H         -2.87100       -0.51970       -0.80380
