17
gdb 8216	5.19154	1.21498	1.07934	2.8654	65.67	-0.2463	0.0237	0.2699	1110.0009	0.1414	-400.984655	-400.976294	-400.97535	-401.018568	29.02
C          0.12210        1.42350        0.00030
C         -0.09970       -0.06540        0.04940
N         -0.62900       -0.76570        0.96700
O          0.35780       -0.64450       -1.08380
C          0.25680       -2.06100       -1.14560
C         -1.12820       -2.66020       -1.44180
O         -0.63120       -3.27980       -2.65130
C          0.64300       -2.61660       -2.52250
H          1.18940        1.64190       -0.10280
H         -0.38030        1.84970       -0.87330
H         -0.25720        1.90550        0.90250
H         -0.91430       -0.18020        1.74830
H          0.76340       -2.50310       -0.28660
H         -1.50810       -3.39170       -0.72270
H         -1.89960       -1.90800       -1.64600
H          0.78790       -1.83350       -3.27760
H          1.48250       -3.31970       -2.55590
