16
gdb 12713	2.90457	2.22993	1.6867	1.9972	64.62	-0.2447	-0.0278	0.2169	821.7343	0.129278	-383.726087	-383.718628	-383.717684	-383.757858	27.598
C         -0.19000        1.54400       -0.07010
C          0.02240        0.05080        0.01440
C         -1.17550       -0.87550        0.35470
O         -0.41280       -1.60600        1.33760
C          0.74680       -0.77850        1.13440
C          1.72930       -1.38950        0.10670
C          0.97190       -0.62130       -0.99760
O          1.10710       -0.51320       -2.18150
H          0.76190        2.08410       -0.08730
H         -0.72630        1.79690       -0.99110
H         -0.77650        1.91040        0.77860
H         -2.01160       -0.33550        0.81760
H         -1.56100       -1.51510       -0.44760
H          1.14680       -0.36470        2.06210
H          2.75780       -1.02300        0.20370
H          1.74070       -2.47980        0.04070
