18
gdb 1121	4.79558	1.49909	1.38222	3.3356	64.34	-0.2438	0.0346	0.2784	953.6413	0.158321	-327.026688	-327.017676	-327.016732	-327.060725	31.641
C          0.04360        1.50840       -0.03510
C          0.07130       -0.01140        0.16450
C          0.65100       -0.38360        1.53550
C         -1.32870       -0.61130       -0.03320
C         -1.31870       -2.13580       -0.14570
N         -2.48590       -2.74590        0.21880
O         -0.35730       -2.76680       -0.54240
H          1.04570        1.93570        0.07430
H         -0.32820        1.77690       -1.02990
H         -0.60410        1.99470        0.70490
H          0.71260       -0.45880       -0.60310
H          0.03340        0.02010        2.34780
H          0.71140       -1.46850        1.65530
H          1.66040        0.02330        1.65560
H         -2.00230       -0.29460        0.77420
H         -1.76660       -0.22960       -0.96600
H         -3.30530       -2.22470        0.47600
H         -2.57050       -3.73810        0.06890
