20
gdb 15342	5.96317	0.89062	0.84161	0.8521	81.65	-0.2552	0.0583	0.3135	1414.4822	0.175339	-311.827403	-311.818129	-311.817185	-311.861744	34.003
C          0.44900        1.51070        0.24550
C         -0.15040        0.13740       -0.08100
C          0.48470       -0.49160       -1.30570
C          1.74890       -1.31480       -1.19940
C          0.45350       -1.97340       -1.60290
C         -0.23330       -2.97950       -0.68710
C          0.25810       -4.34060       -0.88410
C          0.66850       -5.45560       -1.06630
H          1.52400        1.43340        0.43910
H          0.31280        2.20830       -0.58820
H         -0.02360        1.95090        1.12900
H         -0.03100       -0.52040        0.78770
H         -1.23240        0.24090       -0.23900
H          0.41760        0.14020       -2.18950
H          2.53020       -1.19280       -1.94140
H          2.11900       -1.52570       -0.19990
H          0.36440       -2.23590       -2.65320
H         -0.09180       -2.69650        0.36230
H         -1.31780       -2.96000       -0.86090
H          1.02950       -6.44220       -1.21820
