13
gdb 6635	6.01601	0.81756	0.72365	4.0946	69.82	-0.2557	-0.0219	0.2338	1455.0039	0.09266	-361.426091	-361.416862	-361.415918	-361.462986	30.679
N         -0.05450        1.37590        0.04500
C          0.07570        0.02090       -0.05960
O          1.14630       -0.54320       -0.16840
C         -1.19480       -0.69330       -0.03840
C         -2.21290       -1.33620       -0.02530
C         -3.45310       -2.11240       -0.01220
C         -3.24180       -3.55970        0.03070
C         -3.08180       -4.74830        0.06670
H          0.78310        1.93340        0.07950
H         -0.94850        1.81080        0.18990
H         -4.06260       -1.80390        0.84850
H         -4.04610       -1.85350       -0.90050
H         -2.93020       -5.79900        0.09780
