13
gdb 4397	4.03682	1.97167	1.3357	5.1295	62.01	-0.2644	-0.0631	0.2012	855.8893	0.097557	-394.858933	-394.852141	-394.851197	-394.890448	24.213
C         -0.01510        1.51350        0.01390
C         -0.00430        0.01650       -0.05480
N         -0.04450       -0.60030       -1.20640
C         -0.02900       -1.96800       -1.12080
N          0.01990       -2.72150       -0.06220
C          0.06340       -2.09580        1.17320
O          0.11100       -2.64040        2.24840
N          0.04790       -0.67300        1.10560
H          0.88540        1.88420        0.51510
H         -0.05740        1.91610       -0.99700
H         -0.88140        1.86810        0.58250
H         -0.06220       -2.47790       -2.08270
H          0.07910       -0.19670        1.99780
