19
gdb 11592	5.64354	0.91936	0.83306	3.5353	73.93	-0.2387	0.0384	0.2771	1400.18	0.164783	-365.088155	-365.07892	-365.077976	-365.123989	32.266
C          0.21880        1.44080       -0.13940
C         -0.19060       -0.02220       -0.04400
O         -1.05390       -0.39910        0.72850
N          0.48030       -0.86740       -0.88210
C          0.19250       -2.29010       -0.96860
C         -0.12470       -2.72480       -2.38150
C          0.99400       -3.04190       -3.34770
C          0.12560       -4.14830       -2.80190
H          1.01430        1.63270       -0.86440
H         -0.65950        2.03330       -0.40930
H          0.54770        1.77780        0.84710
H          1.15950       -0.48620       -1.51980
H          1.04390       -2.87340       -0.58890
H         -0.65120       -2.46610       -0.29680
H         -1.00070       -2.24210       -2.80600
H          0.87670       -2.75820       -4.38750
H          2.01540       -2.98120       -2.98380
H          0.56450       -4.82190       -2.07300
H         -0.58880       -4.62060       -3.46630
