17
gdb 3156	3.73164	2.68411	1.86398	1.7835	64.01	-0.2548	0.0774	0.3322	737.3761	0.148019	-309.691591	-309.684615	-309.683671	-309.722307	26.427
C         -0.52400        1.36570        0.00430
C          0.09360       -0.02320       -0.02070
C          1.44490       -0.25370       -0.76940
C          1.91960       -1.17460        0.39450
C          0.78740       -0.57820        1.23180
C          0.85430        0.00050        2.57520
O          0.13860       -1.21720        2.31340
H          0.20250        2.11550        0.33660
H         -0.87470        1.65880       -0.99110
H         -1.38390        1.40490        0.68210
H         -0.64510       -0.75920       -0.36040
H          1.38970       -0.69950       -1.76400
H          2.03280        0.66670       -0.82840
H          1.74160       -2.23360        0.18500
H          2.94190       -1.05320        0.75990
H          1.76270       -0.11050        3.16690
H          0.23380        0.85700        2.83570
