11
gdb 1027	8.37541	2.0182	1.62631	4.5223	56.2	-0.2497	-0.0566	0.193	687.6518	0.080641	-339.483894	-339.478286	-339.477342	-339.513413	19.894
O         -0.16200       -0.02200       -0.00060
C         -0.03670        1.18280        0.00770
C          1.23620        1.88040       -0.00080
C          2.54560        1.43270       -0.01860
N          3.42000        2.47700       -0.02020
C          2.66460        3.56270       -0.00360
N          1.34550        3.26270        0.00940
H         -0.92810        1.85410        0.02280
H          2.87710        0.40590       -0.03030
H          3.02740        4.57990        0.00020
H          0.58040        3.91790        0.02330
