15
gdb 7710	3.5068	1.94608	1.29589	2.2572	64.38	-0.2545	0.0026	0.2571	894.411	0.122639	-396.049056	-396.042158	-396.041214	-396.080285	26.168
N         -0.08950        1.33040       -0.20450
C         -0.03200        0.07720        0.01140
C         -1.29480       -0.74730        0.10850
C         -1.13220       -1.90060        1.09790
N          0.06520       -2.65220        0.74840
C          1.25170       -2.03320        0.45350
O          2.33050       -2.58980        0.44040
N          1.13430       -0.67240        0.14600
H          0.84250        1.74510       -0.27690
H         -2.11620       -0.08720        0.38760
H         -1.51090       -1.15750       -0.88540
H         -1.08080       -1.51280        2.12670
H         -1.99310       -2.57180        1.04230
H          0.18720       -3.58170        1.11870
H          2.02500       -0.22800       -0.02530
