15
gdb 1411	6.23412	1.3572	1.18722	2.1768	63.84	-0.2529	-0.0289	0.224	965.4502	0.121699	-308.496384	-308.488145	-308.4872	-308.529306	28.587
C          0.11340        1.60880       -0.02520
C          0.00850        0.07030       -0.04440
C         -1.46810       -0.40000       -0.01000
C         -2.14560       -0.05770        1.29860
O         -3.21850        0.47600        1.40480
C          0.70010       -0.49330       -1.20100
C          1.25420       -0.94740       -2.16620
H          1.15900        1.92520       -0.01900
H         -0.36810        2.03670       -0.90930
H         -0.37820        2.01790        0.86310
H          0.49890       -0.31570        0.86140
H         -2.04090        0.02830       -0.83680
H         -1.49170       -1.49340       -0.11070
H         -1.56390       -0.35870        2.20350
H          1.75250       -1.35220       -3.01210
