19
gdb 6510	2.93719	1.80537	1.35489	1.1796	78.91	-0.2321	0.0387	0.2707	991.0022	0.162182	-327.88232	-327.872833	-327.871889	-327.915571	35.425
C         -0.04870        1.53150       -0.04760
C         -0.03750        0.01620        0.03390
C         -1.25370       -0.62640       -0.60440
N          1.27890       -0.61080       -0.17060
C          0.65590       -0.68480        1.18150
C          1.38720        0.06440        2.28510
C          0.13890       -1.96130        1.61420
C         -0.25120       -3.02540        2.01990
H          0.89160        1.96790        0.28880
H         -0.20320        1.84300       -1.08690
H         -0.86620        1.94860        0.55040
H         -1.27450       -0.40080       -1.67700
H         -1.25660       -1.71040       -0.47490
H         -2.17810       -0.23330       -0.16720
H          1.17180       -1.50760       -0.64060
H          1.85150        0.97350        1.90300
H          0.70120        0.32660        3.09660
H          2.17650       -0.56870        2.70130
H         -0.60380       -3.96420        2.36900
