13
gdb 23893	4.81088	0.96924	0.95102	2.1741	55.07	-0.2606	0.0428	0.3034	1213.0478	0.090145	-492.955478	-492.946898	-492.945954	-492.991414	28.546
C          0.01370        1.50160        0.00990
C          0.01290        0.04770       -0.04760
C          0.00970       -1.15380       -0.09450
C          0.00360       -2.60740       -0.15080
C         -1.37020       -3.21130        0.12370
F         -2.27980       -2.80610       -0.76950
F         -1.30140       -4.55130        0.05570
F         -1.82120       -2.88970        1.34120
H          0.73610        1.86980        0.74630
H          0.27380        1.93790       -0.96050
H         -0.97320        1.88360        0.29260
H          0.31810       -2.96940       -1.13610
H          0.69210       -3.03760        0.58510
