18
gdb 16809	3.5836	1.84432	1.40802	1.7401	73.27	-0.2339	0.0093	0.2432	939.6372	0.153605	-347.802188	-347.794527	-347.793583	-347.833781	29.314
C         -0.10320        1.57680        0.08680
C          0.00880        0.04650        0.01250
C          0.79100       -0.45610       -1.18900
C          1.81090       -1.25920       -0.86570
C          2.79070       -1.92970       -1.77470
C          1.88050       -1.37820        0.62910
O          2.14070       -0.11360        1.28680
C          0.78750       -0.56530        1.17930
H          0.89150        2.01940        0.18310
H         -0.57720        1.98010       -0.81360
H         -0.70380        1.88570        0.94860
H         -1.00520       -0.38010        0.00480
H          0.55300       -0.13600       -2.19900
H          2.56260       -1.73270       -2.82560
H          3.81360       -1.58640       -1.57610
H          2.79130       -3.01720       -1.62700
H          2.30710       -2.24730        1.12300
H          0.29440       -0.78100        2.12400
