15
gdb 12452	3.54023	1.94715	1.37451	2.8652	62.27	-0.2417	-0.025	0.2167	864.8193	0.119909	-399.817594	-399.810516	-399.809571	-399.849698	25.804
O         -0.00030        0.52780       -1.20480
C         -0.00050        1.26560       -0.25090
C         -1.27340        1.99560        0.17940
C         -1.26900        2.52330        1.60810
O         -0.49780        3.72000        1.76110
C          0.81970        3.71660        1.43840
N          1.59580        2.84570        0.96110
C          1.26580        1.48320        0.58510
H         -1.43880        2.83210       -0.51170
H         -2.10760        1.30250        0.02950
H         -2.27820        2.81460        1.90640
H         -0.91960        1.76420        2.31830
H          1.21750        4.70610        1.66370
H          1.17850        0.84900        1.48090
H          2.09410        1.07230        0.00260
