10
gdb 2622	16.37067	0.90804	0.87302	3.1893	61.99	-0.2805	-0.0635	0.217	1170.3131	0.064939	-322.1691	-322.161967	-322.161023	-322.201251	23.063
O         -0.44650        0.60870        0.86340
C          0.01920        1.03750       -0.15320
C          1.33320        1.83870       -0.19070
C          1.33360        2.87550       -1.20280
C          1.28820        3.73010       -2.05510
C          1.24920        4.69810       -3.01720
N          1.21570        5.52040       -3.83690
H         -0.44940        0.86780       -1.14480
H          1.51780        2.24470        0.80910
H          2.13790        1.11750       -0.39970
