15
gdb 18748	3.15813	2.27263	1.59553	4.8728	61.36	-0.241	0.0272	0.2682	801.863	0.11954	-399.795792	-399.788791	-399.787847	-399.82705	26.58
O         -0.03280        1.43790       -0.11540
C          0.01260        0.04110        0.02000
C          0.26690       -0.56570        1.44010
C         -1.11600       -1.27040        1.36920
N         -2.23740       -0.48450        1.88210
C         -2.48880        0.18770        0.69520
O         -3.26860        1.04950        0.40520
C         -1.39010       -0.62530       -0.03200
H          0.86730        1.77760       -0.08510
H          0.68010       -0.41190       -0.72550
H          1.12030       -1.24710        1.48090
H          0.35220        0.17260        2.24070
H         -1.17290       -2.34140        1.56320
H         -2.44080       -0.19090        2.82840
H         -1.67640       -1.16970       -0.92920
