20
gdb 13022	2.47218	2.42416	1.57241	1.5195	73.62	-0.2237	0.0805	0.3042	908.9283	0.177456	-349.001798	-348.993855	-348.99291	-349.033465	31.038
C         -0.02120        1.55030       -0.03500
C          0.03530        0.02390        0.03420
C          0.79930       -0.61490       -1.14940
O          1.36200       -1.83720       -0.67910
C          1.54450       -1.71220        0.70780
C          2.26690       -0.49610        1.23590
C          0.74340       -0.56790        1.25600
C          0.00150       -0.61780        2.56900
H          0.98490        1.98270       -0.01010
H         -0.50900        1.88770       -0.95610
H         -0.58510        1.96530        0.80620
H         -0.99120       -0.36720        0.04420
H          0.15830       -0.84580       -2.00510
H          1.59300        0.06270       -1.50010
H          1.63980       -2.67640        1.19430
H          2.77310       -0.59640        2.19070
H          2.77140        0.16210        0.53650
H         -0.16950        0.38710        2.97360
H         -0.97610       -1.10080        2.45340
H          0.56410       -1.17890        3.32210
