16
gdb 416	5.61124	2.75377	2.3805	1.3751	56.44	-0.2519	0.0723	0.3242	618.4343	0.141819	-271.621836	-271.614856	-271.613912	-271.652038	26.023
C          0.14170        1.50890        0.18110
C         -0.13060        0.02670       -0.10080
C          0.65090       -0.51030       -1.28520
O          0.35170        0.10960       -2.51280
C          2.06320       -1.01180       -1.09610
C          0.92970       -1.97550       -1.40200
H          1.20320        1.68650        0.38580
H         -0.14890        2.13230       -0.67150
H         -0.42960        1.85810        1.04620
H          0.11580       -0.56940        0.78560
H         -1.20040       -0.12040       -0.29450
H          0.74640        0.98800       -2.50330
H          2.77020       -0.81340       -1.89400
H          2.48940       -1.01300       -0.09820
H          0.58180       -2.63430       -0.61380
H          0.89320       -2.39580       -2.40020
