20
gdb 10528	3.37741	1.32698	1.09043	1.5924	72.32	-0.2489	0.0862	0.3351	1167.9036	0.174397	-386.09989	-386.090329	-386.089385	-386.134565	33.701
C         -0.80120        1.28290       -0.86670
O         -0.47090       -0.04540       -1.19290
C          0.30740       -0.67970       -0.20330
C          0.60800       -2.10580       -0.63010
C         -0.43500       -2.89910       -1.35100
C          0.81510       -2.44420       -2.08290
O          1.33550       -2.82110        0.33070
C          2.71980       -2.52830        0.37700
H         -1.39070        1.34060        0.06170
H          0.09730        1.90770       -0.74090
H         -1.39760        1.68330       -1.69000
H          1.24500       -0.11960       -0.04390
H         -0.22630       -0.70220        0.76210
H         -0.50700       -3.94790       -1.08760
H         -1.36890       -2.40490       -1.58920
H          0.71520       -1.64610       -2.80850
H          1.55770       -3.19900       -2.31650
H          3.19550       -2.65680       -0.60490
H          2.92360       -1.50740        0.72910
H          3.16580       -3.23250        1.08360
