15
gdb 6265	3.3335	1.36595	1.11402	4.6189	62.92	-0.2864	-0.0859	0.2005	1068.1866	0.116193	-399.818578	-399.809625	-399.808681	-399.852931	30.777
C          0.09000        1.42660        0.33450
C         -0.05300       -0.09010        0.24770
O         -0.17600       -0.69370        1.52700
C         -1.22500       -0.50410       -0.67790
C         -1.36570       -2.01030       -0.70230
O         -0.80960       -2.73510       -1.48720
C         -2.24620       -2.57830        0.34260
N         -2.96980       -3.00180        1.13900
H          0.92640        1.68280        0.98990
H          0.27120        1.86680       -0.65100
H         -0.82040        1.88160        0.74370
H          0.86420       -0.52050       -0.16960
H         -0.91710       -0.28810        1.99200
H         -2.15490       -0.04440       -0.32290
H         -1.02700       -0.16870       -1.69980
