19
gdb 16023	3.7234	1.82881	1.47291	1.4714	71.27	-0.2408	0.0784	0.3192	908.257	0.16835	-365.044987	-365.037961	-365.037017	-365.075966	28.034
C          0.04240        1.51220       -0.02570
N          1.26780        0.69220        0.04870
C         -0.05160        0.03530        0.02370
C         -0.41780       -0.71700        1.29060
C          0.10720       -2.15860        1.18710
C         -0.34150       -2.79240       -0.13220
O          0.07170       -2.02430       -1.25400
C         -0.46910       -0.71480       -1.22610
H         -0.17020        2.10080        0.86310
H         -0.19550        2.01240       -0.96230
H          1.70530        0.63610       -0.86860
H          0.00150       -0.20540        2.16140
H         -1.51080       -0.72600        1.40390
H          1.20240       -2.14610        1.22010
H         -0.24410       -2.76690        2.02810
H          0.09720       -3.78500       -0.26750
H         -1.44080       -2.90370       -0.14100
H         -1.57200       -0.76060       -1.27950
H         -0.10840       -0.20880       -2.12840
