20
gdb 9800	2.66309	1.60478	1.35527	2.6823	75.1	-0.2401	-0.0199	0.2202	1036.3628	0.174541	-349.007313	-348.998011	-348.997066	-349.041592	33.881
C         -0.28440        1.47020        0.03870
C          0.01490       -0.03660       -0.00530
C          0.79580       -0.38980       -1.25940
O          0.49770       -1.26870       -2.02710
C          0.76830       -0.54160        1.23620
C          2.07010        0.15820        1.58840
C         -0.08840       -1.03540        2.38030
C          0.66740       -2.02150        1.52150
H          0.62910        2.06830       -0.04260
H         -0.94490        1.76160       -0.78360
H         -0.77520        1.73450        0.98000
H         -0.92510       -0.59410       -0.07480
H          1.70610        0.23180       -1.43420
H          1.91680        1.22220        1.79760
H          2.51210       -0.29020        2.48340
H          2.81140        0.07820        0.78560
H          0.26570       -0.85990        3.39090
H         -1.16730       -0.98790        2.27530
H          0.10280       -2.63530        0.82800
H          1.53080       -2.51830        1.95100
