21
gdb 6940	4.76466	0.97579	0.9133	1.4935	76.81	-0.2399	0.0786	0.3185	1372.1621	0.186594	-366.232743	-366.22295	-366.222006	-366.267424	35.019
C          0.13180        1.34100       -0.21520
O          0.17380       -0.06080       -0.11780
C          0.50510       -0.50970        1.18100
C          0.53000       -2.01530        1.15800
N          1.82470       -2.67250        0.89840
C          1.15910       -2.87520        2.20040
C          1.88630       -2.28400        3.39330
C          0.52020       -4.22370        2.47440
H          1.10700        1.79800        0.01760
H         -0.13700        1.59080       -1.24470
H         -0.61920        1.77780        0.46360
H          1.48460       -0.11420        1.48760
H         -0.24530       -0.15090        1.90870
H         -0.34760       -2.43250        0.66530
H          1.69380       -3.48410        0.29920
H          2.40080       -1.35820        3.13130
H          1.19100       -2.07860        4.21520
H          2.63950       -2.98900        3.76330
H          1.28090       -4.96220        2.75470
H         -0.19790       -4.16270        3.30010
H         -0.01200       -4.60000        1.59480
