12
gdb 9461	3.00848	1.80862	1.66751	3.286	56.47	-0.2664	-0.0212	0.2452	820.5781	0.081555	-418.450148	-418.442539	-418.441595	-418.482133	27.099
O          0.03240        1.43730        0.09330
C          0.02680        0.03010        0.06470
C         -1.40290       -0.52230       -0.13610
O         -1.03410       -1.05990       -1.44580
C          0.24240       -0.57960       -1.36220
O          1.11100       -0.63060       -2.16700
C          0.83110       -0.57840        1.11100
C          1.52700       -1.06870        1.95910
H          0.95130        1.73040        0.09200
H         -1.71520       -1.31680        0.54090
H         -2.15680        0.26010       -0.22920
H          2.13880       -1.50530        2.71060
