22
gdb 12351	2.75448	1.94699	1.45625	0.2201	82.42	-0.2346	0.0336	0.2682	988.245	0.201678	-313.097988	-313.089685	-313.088741	-313.13001	32.731
C         -0.02590        1.56050       -0.04140
C          0.05970        0.03160       -0.00580
C          0.67360       -0.53480       -1.29880
C          0.93980       -2.01400       -1.21070
C          0.91920       -2.69200       -0.06380
C          0.64300       -2.05450        1.27480
C          0.79050       -0.51890        1.24310
C          2.26920       -0.10750        1.33050
H          0.96220        2.02090       -0.14680
H         -0.63380        1.89710       -0.88830
H         -0.48240        1.95450        0.87330
H         -0.96880       -0.35340        0.05250
H          0.00310       -0.32750       -2.14360
H          1.60730       -0.00280       -1.53970
H          1.15890       -2.53260       -2.14150
H          1.10370       -3.76410       -0.06910
H         -0.37130       -2.32680        1.60310
H          1.31570       -2.47900        2.03170
H          0.28250       -0.11160        2.12740
H          2.85700       -0.53520        0.51230
H          2.39420        0.97900        1.30560
H          2.70690       -0.46480        2.26860
