14
gdb 674	5.9367	4.46406	3.25447	1.3987	51.92	-0.2271	0.0914	0.3186	466.8514	0.121999	-270.417842	-270.412868	-270.411924	-270.445903	19.348
C         -0.08630        1.40950        0.29390
C          1.30810        0.87920       -0.00330
C          2.10720        0.33060        1.16870
C          1.09950       -0.61410        1.86500
O          0.15630       -1.01900        0.87240
C          0.11610       -0.02630       -0.11910
H         -0.36420        1.63130        1.31910
H         -0.52500        2.07790       -0.43930
H          1.83930        1.24550       -0.87360
H          2.97040       -0.22710        0.79030
H          2.47830        1.09780        1.85500
H          1.55940       -1.51600        2.27840
H          0.58450       -0.09470        2.68500
H         -0.28010       -0.40300       -1.05450
