16
gdb 2032	7.17717	1.6817	1.59693	1.2634	60.86	-0.2419	0.0757	0.3175	799.6855	0.13718	-325.731549	-325.724788	-325.723843	-325.76209	25.948
O          0.65800        0.75430       -0.72690
C         -0.03110       -0.19430        0.04370
C          0.10340       -0.17160        1.59750
C         -1.38940       -0.51400        1.65760
C         -1.99920       -1.66200        2.36160
N         -2.34050       -0.27010        2.73340
C         -1.57760       -0.09370        0.19720
H          0.38810        1.63100       -0.43320
H          0.26230       -1.16820       -0.35680
H          0.81990       -0.85140        2.06580
H          0.29790        0.84910        1.95100
H         -2.81040       -2.21960        1.90000
H         -1.37380       -2.24510        3.03370
H         -1.84630       -0.00920        3.58410
H         -1.91550        0.94720        0.12550
H         -2.20180       -0.71420       -0.44950
