20
gdb 17627	3.18433	1.4533	1.0761	1.7235	70.79	-0.2596	0.0666	0.3261	1130.1376	0.174555	-386.119611	-386.110153	-386.109209	-386.153841	34.401
C         -0.05020        1.51020        0.31320
C         -0.12560       -0.00680        0.13560
O          0.22880       -0.67360        1.34680
C         -1.48770       -0.50280       -0.39210
C         -1.85720        0.09720       -1.75780
C         -1.49210       -2.01620       -0.48450
C         -2.05910       -2.88060        0.55060
O         -2.76960       -2.63590       -0.66710
H          0.91000        1.77760        0.76230
H         -0.14450        2.04090       -0.63790
H         -0.84960        1.86610        0.97590
H          0.65130       -0.31760       -0.57590
H         -0.39090       -0.38930        2.02790
H         -2.26170       -0.21400        0.33490
H         -2.00920        1.17810       -1.70250
H         -1.07130       -0.09600       -2.49770
H         -2.78190       -0.35690       -2.12350
H         -0.70630       -2.43670       -1.11710
H         -1.68440       -3.89470        0.68110
H         -2.49560       -2.43250        1.44260
