15
gdb 19239	3.03694	2.14521	1.60725	2.8492	64.67	-0.2469	0.0046	0.2515	817.4554	0.120505	-358.797952	-358.790767	-358.789823	-358.829284	27.005
N         -0.08440        1.51090        0.21310
C         -0.05230        0.09650       -0.02370
C         -1.38070       -0.64580       -0.03650
C         -2.16660       -0.38810       -1.25790
N         -1.07400       -1.37570       -1.34340
C          0.20390       -0.57820       -1.44910
C          0.30690        0.32890       -2.57950
N          0.37420        1.10660       -3.43370
H          0.84790        1.91100        0.21450
H         -0.62330        2.00220       -0.49210
H          0.64020       -0.35710        0.68880
H         -1.79960       -1.16970        0.81570
H         -3.14500       -0.85350       -1.31730
H         -2.08390        0.54630       -1.80750
H          1.05600       -1.26060       -1.44550
