13
gdb 5138	5.84754	1.36239	1.21214	1.2806	64.41	-0.2447	-0.0007	0.244	960.6157	0.095668	-361.458164	-361.451175	-361.450231	-361.490223	25.199
C         -0.04320       -1.17850        0.33580
C          0.00130       -0.00100        0.10600
C          0.04940        1.43240       -0.17160
C          1.43540        2.00030       -0.17040
N          2.02570        2.64960       -1.12230
C          3.27410        2.97040       -0.59970
C          3.36360        2.48440        0.65860
O          2.18400        1.85730        0.95050
H         -0.08020       -2.22040        0.53720
H         -0.37610        1.64870       -1.15610
H         -0.56410        1.96810        0.56550
H          4.00490        3.52100       -1.16990
H          4.11370        2.48200        1.43010
