16
gdb 12204	2.91872	1.79547	1.58461	0.6886	65.97	-0.2607	0.0129	0.2737	889.9116	0.128269	-383.684653	-383.676337	-383.675393	-383.717466	30.571
C          0.60270        1.42150       -0.14570
C          0.02800        0.03970        0.09440
O          0.59400       -0.97020       -0.78970
C          1.25040       -1.65910        0.29570
C          2.70010       -1.52470        0.28060
C          3.89180       -1.36110        0.32750
C          0.53610       -0.73830        1.34270
O          1.30240       -0.08970        2.30740
H          1.69220        1.42320       -0.05290
H          0.34700        1.76160       -1.15350
H          0.19160        2.13330        0.57710
H         -1.06410        0.05510       -0.00700
H          0.96620       -2.71730        0.32810
H          4.94860       -1.25040        0.33760
H         -0.26690       -1.25980        1.86780
H          2.18880        0.04760        1.94800
