15
gdb 5784	6.1729	1.51752	1.34522	2.8809	67.92	-0.2137	0.0322	0.2459	905.4772	0.121605	-358.84623	-358.839611	-358.838667	-358.877701	24.964
C          0.23160        1.59250        0.08260
C          1.23950        0.55320       -0.23440
N         -0.15070        0.17070        0.06490
C         -0.37980       -0.43400        1.31810
C         -1.30550       -1.41330        1.56630
N         -1.17770       -1.69720        2.91060
C         -0.19830       -0.89090        3.40360
N          0.30540       -0.11570        2.47160
H          0.30720        2.06940        1.05530
H         -0.21020        2.19220       -0.70810
H          1.54830        0.37890       -1.26120
H          1.98300        0.34140        0.52820
H         -2.01480       -1.91210        0.92930
H         -1.71120       -2.37500        3.42770
H          0.10090       -0.91420        4.44110
