16
gdb 3370	4.14135	2.75608	2.68383	0.6726	60.18	-0.2211	0.0921	0.3133	624.0958	0.13835	-325.743746	-325.737463	-325.736519	-325.773566	23.779
C         -0.27470        1.49920       -0.04890
N          0.03660        0.07760        0.06470
C          1.33830       -0.46820       -0.28650
C          2.54460        0.45170       -0.33000
O          2.53080        1.19560        0.88580
C          1.81080        0.46740        1.87740
C          0.86670       -0.45810        1.13230
H          0.54400        2.17810        0.21840
H         -0.57710        1.70290       -1.08110
H         -1.13390        1.71480        0.59420
H          1.34190       -1.35560       -0.91410
H          3.46080       -0.15400       -0.42300
H          2.53120        1.17460       -1.15370
H          2.48650       -0.13310        2.50810
H          1.31010        1.20080        2.51990
H          0.49010       -1.33740        1.64840
