16
gdb 1769	4.61558	1.9646	1.75629	1.5588	68.07	-0.2296	0.0459	0.2755	790.4313	0.13406	-288.574763	-288.56679	-288.565846	-288.606247	29.369
C         -0.20400        1.44900       -0.06650
N          0.04170        0.01910        0.03880
C          1.38650       -0.47330       -0.18970
C          0.79100       -0.52060        1.19110
C          1.35670        0.38140        2.27920
C          0.27810       -1.77790        1.68880
C         -0.12400       -2.81790        2.13840
H          0.65380        2.08870        0.19140
H         -0.48560        1.67080       -1.10090
H         -1.04570        1.72200        0.57750
H          1.47340       -1.38020       -0.78170
H          2.18450        0.25460       -0.34180
H          1.81160        1.28450        1.86800
H          0.57360        0.67440        2.98560
H          2.12530       -0.15790        2.84000
H         -0.49090       -3.73850        2.51940
