16
gdb 20142	5.29421	1.4055	1.26549	2.6139	64.31	-0.2557	0.0785	0.3342	961.3747	0.130318	-383.669609	-383.662716	-383.661772	-383.701169	25.868
C          0.14470        1.50290       -0.03950
O          1.22780        0.57350       -0.07430
C         -0.10810        0.05680       -0.01300
C         -0.48510       -0.66480        1.24860
C         -2.01160       -0.97220        1.50450
C         -1.66060       -2.46550        1.51380
O         -1.06040       -2.76130        0.24670
C         -0.23680       -2.18820        1.26940
H          0.05490        2.08170        0.87960
H         -0.02140        2.06560       -0.95720
H         -0.44330       -0.42420       -0.93170
H         -0.02890       -0.16970        2.11020
H         -2.35160       -0.59180        2.47010
H         -2.71380       -0.66920        0.72380
H         -2.14590       -3.28320        2.03290
H          0.65900       -2.73040        1.54760
