15
gdb 7132	7.62028	0.85715	0.7779	4.3275	60.22	-0.2522	-0.0308	0.2214	1368.9205	0.116883	-436.977556	-436.968507	-436.967563	-437.012715	29.952
O         -0.23690        1.52530        0.01290
C          0.02890        0.13120        0.00250
C         -1.32080       -0.57240        0.01190
C         -1.17940       -2.08740        0.00190
O         -0.12170       -2.66260       -0.01290
N         -2.42080       -2.74850        0.01050
C         -2.66520       -4.11990        0.00470
O         -1.84560       -4.99440       -0.00850
H          0.60520        1.98920        0.00800
H          0.59550       -0.17250       -0.88850
H          0.61300       -0.18240        0.87860
H         -1.89150       -0.26250        0.89680
H         -1.90890       -0.25250       -0.85780
H         -3.24320       -2.16230        0.02250
H         -3.75900       -4.30790        0.01510
