10
gdb 21757	5.73749	2.24179	1.61195	3.1573	53.21	-0.2715	-0.0431	0.2284	686.7226	0.062659	-413.405534	-413.400525	-413.399581	-413.434634	19.093
O         -0.13520        1.26710        0.01020
N          1.17180        1.88230        0.00080
C          2.04800        0.90520       -0.01270
C          1.41920       -0.37030       -0.01330
C          0.09580       -0.02820        0.00120
O         -0.73400       -1.04940        0.00380
N          0.11120       -2.22080       -0.01060
C          1.35120       -1.79070       -0.02010
H          3.09520        1.17320       -0.02130
H          2.13730       -2.53260       -0.03160
