15
gdb 16165	4.5374	1.69936	1.44469	1.7862	60.3	-0.2482	0.0072	0.2554	856.8408	0.119918	-399.786076	-399.77922	-399.778276	-399.817338	25.913
O          0.01680        1.45530        0.24940
C          0.03940        0.07980       -0.08190
C         -1.34380       -0.51590       -0.04660
C         -1.99850       -1.01260        1.22620
C         -1.74900       -1.97320        0.09900
O         -2.82280       -2.15620       -0.81910
C         -3.02740       -0.93190       -1.36800
N         -2.26540        0.02850       -1.03020
H         -0.64520        1.86010       -0.32390
H          0.47940       -0.08440       -1.07840
H          0.68340       -0.41340        0.65350
H         -1.35030       -1.12050        2.08940
H         -3.01660       -0.70790        1.44390
H         -1.10990       -2.84290        0.17800
H         -3.84700       -0.88130       -2.07420
