8
gdb 57	10.16063	4.15847	3.0056	3.3351	37.08	-0.3007	-0.0889	0.2118	397.7757	0.05451	-246.027383	-246.022024	-246.02108	-246.055769	16.963
C         -0.01170        1.49970       -0.01210
C         -0.02920       -0.00340        0.07150
O         -0.09160       -0.64590        1.08730
C          0.03830       -0.69690       -1.23750
N          0.09140       -1.22980       -2.26230
H          0.90090        1.83370       -0.51810
H         -0.85660        1.84860       -0.61620
H         -0.06420        1.92130        0.99200
