14
gdb 15283	5.04522	1.13903	1.00443	1.8876	70.2	-0.263	0.0126	0.2756	1124.7789	0.103791	-345.307825	-345.299623	-345.298679	-345.340899	29.67
C          0.03080       -1.14850       -0.40900
C          0.01560       -0.00660       -0.03650
C          0.02570        1.37790        0.42170
C          1.38910        2.02680        0.26230
O          1.71300        2.56010       -1.01340
C          1.54610        3.48640        0.07590
C          0.42280        4.38340        0.02490
C         -0.49720        5.15700        0.00430
H          0.03320       -2.15550       -0.74580
H         -0.71320        1.97110       -0.12670
H         -0.25800        1.41990        1.48200
H          2.20920        1.49760        0.74930
H          2.47750        3.93840        0.41590
H         -1.31110        5.83920       -0.02310
