16
gdb 13964	5.30918	1.24096	1.13817	2.8747	65.43	-0.2479	-0.0276	0.2203	1046.3729	0.128763	-383.710848	-383.703202	-383.702258	-383.743784	27.539
O         -0.32270        0.12390        0.24740
C         -0.01260        1.27880        0.11490
C          1.40510        1.76220       -0.14870
C          1.46530        2.72040       -1.30120
C          1.35080        2.42770       -2.81030
C          2.21950        3.70790       -3.07540
C          2.27360        3.92720       -1.55820
O          0.91820        4.03570       -1.10070
H         -0.76490        2.09490        0.18620
H          1.74560        2.28630        0.75450
H          2.04700        0.89210       -0.31390
H          1.85880        1.50790       -3.10980
H          0.33260        2.42770       -3.20560
H          3.19190        3.47100       -3.51300
H          1.74980        4.51600       -3.64010
H          3.03480        4.41260       -0.95710
