16
gdb 13802	4.27652	1.23297	1.10404	5.0934	62.25	-0.2466	0.015	0.2616	1080.4218	0.130348	-417.053808	-417.045004	-417.04406	-417.088001	30.884
N          0.23970        1.11000       -0.70940
C          0.06340        0.22240        0.31530
O          0.92480        0.00760        1.14460
C         -1.30160       -0.42340        0.32610
N         -1.39560       -1.76790        0.91890
C         -2.08240       -0.65910        1.58460
C         -1.58650       -0.33120        2.97540
O         -2.05380       -1.30380        3.90080
H          1.13960        1.55290       -0.79790
H         -0.42620        1.22150       -1.45300
H         -1.90390       -0.22960       -0.56060
H         -2.04680       -2.33320        0.38110
H         -3.16520       -0.60710        1.47290
H         -0.49510       -0.25980        2.96920
H         -2.00070        0.62830        3.30300
H         -1.62440       -2.13160        3.65720
