18
gdb 13463	3.72997	1.15565	1.07071	2.3748	65.16	-0.2341	0.0505	0.2846	1174.8336	0.151811	-422.029071	-422.019987	-422.019042	-422.063317	32.318
C         -0.24330        1.39150       -0.40190
O         -0.26170       -0.01370       -0.44020
C         -1.03990       -0.57400        0.59880
C         -0.99570       -2.07210        0.44520
C         -1.89160       -2.97820        1.25110
O         -2.83440       -2.33670        2.08000
C         -2.12760       -2.82840       -0.23380
O         -3.28040       -2.15010       -0.62500
H          0.37960        1.73420       -1.23190
H         -1.25270        1.81840       -0.51590
H          0.18220        1.77140        0.54160
H         -0.63780       -0.27260        1.58110
H         -2.07490       -0.20740        0.54410
H          0.00690       -2.45260        0.27100
H         -1.47420       -3.89500        1.66230
H         -3.49720       -2.99020        2.32980
H         -1.88320       -3.64140       -0.91030
H         -3.72180       -1.87810        0.19180
