20
gdb 8008	3.35542	1.54323	1.20605	0.789	70.36	-0.2515	0.0653	0.3168	1053.7872	0.177552	-386.156307	-386.1477	-386.146755	-386.189789	32.474
C         -0.12780        1.54320       -0.03510
C          0.08470        0.03440        0.06420
C          0.67740       -0.60360       -1.21460
C          1.39770       -1.89160       -0.77140
O          2.75010       -1.83520       -1.22620
C          1.35100       -1.88070        0.79310
O          2.51110       -2.44100        1.37470
C          1.06780       -0.41550        1.15560
H          0.82030        2.05840       -0.22870
H         -0.81540        1.79540       -0.84980
H         -0.54670        1.95010        0.89130
H         -0.88640       -0.43830        0.27060
H         -0.07570       -0.78110       -1.98690
H          1.43450        0.06100       -1.64600
H          0.91550       -2.79390       -1.16880
H          3.14440       -2.69240       -1.02870
H          0.52000       -2.50860        1.13340
H          3.25160       -1.93390        1.01930
H          1.99950        0.16300        1.07530
H          0.68860       -0.29290        2.17380
