14
gdb 3699	3.7373	3.28919	1.77295	2.4807	59.57	-0.1916	0.0358	0.2274	688.8918	0.115244	-320.777491	-320.770465	-320.769521	-320.808243	25.509
C         -0.05180        1.47660       -0.03270
C         -0.01800       -0.01620        0.03300
N         -0.01280       -0.76230       -1.07260
N          0.01080       -2.02880       -0.63400
C          0.02740       -2.12530        0.72600
C          0.00830       -0.82870        1.19840
N         -0.06320       -0.37250        2.52780
H          0.84240        1.92780        0.41730
H         -0.10230        1.80020       -1.07430
H         -0.92010        1.88250        0.49950
H          0.01240       -2.77840       -1.30260
H          0.04560       -3.07670        1.23330
H          0.27750       -1.05470        3.19320
H          0.44880        0.49100        2.66180
