12
gdb 4700	6.22265	1.35171	1.11048	5.635	66.44	-0.2128	-0.0138	0.199	965.3982	0.085628	-377.57445	-377.567605	-377.566661	-377.605404	25.367
O          0.08530        1.31690        0.23580
C          0.06890       -0.01160        0.00650
C          0.06300       -0.77090       -1.15010
C          0.04380       -2.12600       -0.74170
C          0.03910       -2.15800        0.64070
N          0.05460       -0.83680        1.08160
C          0.02230       -3.23970        1.53960
N          0.00830       -4.12320        2.29240
H          0.09510        1.77870       -0.60860
H          0.07130       -0.39290       -2.16010
H          0.03460       -2.99460       -1.38060
H          0.05510       -0.53400        2.04110
