16
gdb 4903	6.63853	1.17443	1.02067	1.8113	67.96	-0.2135	0.0207	0.2341	1127.7569	0.130408	-383.769645	-383.761659	-383.760715	-383.802326	28.751
C          0.17350        1.49030        0.18130
C         -0.09180        0.03380        0.04760
C         -1.22160       -0.72210        0.10540
C         -0.82250       -2.08780       -0.10470
C         -1.69060       -3.31120       -0.13380
O         -1.06520       -4.41660       -0.76710
C          0.52570       -2.04870       -0.27610
O          0.98520       -0.76800       -0.18960
H          0.63060        1.90090       -0.72620
H         -0.76220        2.02300        0.36440
H          0.85560        1.69950        1.01330
H         -2.22300       -0.35600        0.27520
H         -1.91680       -3.65120        0.88420
H         -2.65820       -3.06950       -0.60310
H         -0.83110       -4.13600       -1.65850
H          1.26720       -2.80870       -0.45350
