20
gdb 17841	3.60591	1.50613	1.34725	1.5655	74.4	-0.2442	0.0779	0.3221	1017.1013	0.176976	-348.972067	-348.963718	-348.962773	-349.005154	31.71
C          0.00690        1.47380       -0.09600
C          0.03970       -0.04110        0.12080
O          0.68420       -0.37400        1.35190
C         -1.34960       -0.64590        0.04110
C         -1.99700       -1.22490       -1.19250
C         -0.99000       -1.98540       -2.06740
C         -0.61930       -2.88190       -0.84070
C         -1.64730       -2.11920        0.00600
H          1.01420        1.89190       -0.01920
H         -0.40330        1.72020       -1.08090
H         -0.62270        1.96030        0.65960
H          0.68420       -0.48700       -0.64260
H          0.09450       -0.11390        2.06810
H         -2.07260       -0.10110        0.65120
H         -2.96850       -0.88000       -1.52750
H         -1.48290       -2.56060       -2.85430
H         -0.18860       -1.39850       -2.52800
H         -0.89500       -3.92630       -1.00060
H          0.41390       -2.84650       -0.48370
H         -2.31200       -2.57300        0.73180
