20
gdb 12737	2.58082	2.15395	1.7527	1.7048	74.36	-0.2351	0.0777	0.3128	898.2653	0.176551	-348.983916	-348.975829	-348.974885	-349.016078	31.115
C         -0.64800        1.37530        0.06870
C          0.04190        0.03040       -0.03150
O          1.18840        0.04270       -0.92300
C          2.01480       -0.63710        0.04330
C          2.90380        0.33430        0.84610
C          1.76180        0.48670        1.89920
C          0.89350       -0.55460        1.12570
C          0.32600       -1.71930        1.90460
H          0.04160        2.16290        0.38250
H         -1.05620        1.65670       -0.90740
H         -1.47900        1.32860        0.78140
H         -0.68430       -0.72130       -0.38020
H          2.44720       -1.56170       -0.35220
H          3.80730       -0.13010        1.25110
H          3.18320        1.23240        0.29130
H          2.04150        0.13590        2.89590
H          1.33300        1.48550        2.00590
H         -0.47060       -1.38710        2.58230
H         -0.09900       -2.47870        1.23900
H          1.09450       -2.20270        2.51780
