15
gdb 15629	3.555	1.71632	1.17442	1.9938	65.96	-0.2422	-0.0214	0.2208	968.7111	0.119474	-399.817547	-399.810025	-399.80908	-399.849646	27.224
O         -0.00060        1.41900        0.00750
C          0.00210        0.00250        0.00200
C         -1.40630       -0.48190        0.01220
C         -2.54480        0.21290        0.02410
C         -3.70010       -0.74240        0.03050
O         -3.10210       -2.04410        0.02110
C         -1.73640       -1.91620        0.01010
N         -0.90610       -2.87350        3.17790
H          0.91290        1.71750        0.00140
H          0.51160       -0.40820       -0.88410
H          0.52670       -0.41500        0.87610
H         -2.64660        1.28850        0.02860
H         -4.33310       -0.64710        0.92300
H         -4.34790       -0.64110       -0.85060
H         -1.38880       -3.77310        0.00100
