17
gdb 1279	7.77081	1.15858	1.03409	2.0071	61.83	-0.265	0.02	0.285	1145.5681	0.146096	-346.903261	-346.894413	-346.893469	-346.937865	29.339
C         -0.01050        1.47520        0.08880
C          0.13100       -0.04760        0.01450
C          0.69220       -0.49960       -1.32380
O          0.78850       -1.93620       -1.29990
C          1.27280       -2.51240       -2.41970
C          1.32310       -4.01440       -2.26730
O          1.61270       -1.89380       -3.39650
H          0.95670        1.97270       -0.04130
H         -0.68390        1.85200       -0.68860
H         -0.41510        1.78330        1.05690
H          0.78850       -0.40660        0.81460
H         -0.84240       -0.52670        0.17120
H          0.04860       -0.19770       -2.15740
H          1.68550       -0.07720       -1.51160
H          0.32220       -4.40480       -2.06250
H          1.71620       -4.45870       -3.18090
H          1.95660       -4.28460       -1.41770
