18
gdb 9873	4.78	1.0961	1.00325	1.3548	74.69	-0.2511	0.0363	0.2874	1207.7612	0.150515	-347.743483	-347.734536	-347.733592	-347.777326	32.923
C          0.06650        1.62400        0.21030
C         -0.03770        0.12330        0.04500
C          1.16090       -0.68100       -0.40200
C          0.64200       -0.78650        1.02030
O         -1.29800       -0.34880       -0.36280
C         -1.62620       -0.04270       -1.71100
C         -2.82770       -0.77100       -2.09750
C         -3.81710       -1.35810       -2.44130
H          1.04070        1.89720        0.62520
H         -0.04200        2.15150       -0.74370
H         -0.71070        1.98660        0.89110
H          0.97660       -1.52740       -1.05420
H          2.09940       -0.16650       -0.57890
H          1.22150       -0.34180        1.82200
H          0.11080       -1.69290        1.28590
H         -1.79840        1.03690       -1.84070
H         -0.79420       -0.31590       -2.37890
H         -4.69220       -1.88040       -2.73990
