21
gdb 8439	2.70496	2.04756	1.74422	1.668	77.71	-0.2245	0.0782	0.3027	914.7076	0.187739	-329.095419	-329.086863	-329.085919	-329.127436	33.538
C          0.01320        1.54030        0.11360
C         -0.02620        0.04390       -0.01740
C         -0.88200       -0.79540        0.84830
N          0.58110       -0.89260        1.02250
C          1.03320       -1.78200       -0.10390
C          0.55240       -0.77740       -1.19550
C         -0.43660       -1.27710       -2.24890
C          1.73840       -0.08280       -1.86980
H          0.98580        1.95200       -0.17160
H         -0.74950        2.00770       -0.52100
H         -0.18530        1.83490        1.14820
H         -1.37740       -0.30160        1.67960
H         -1.42170       -1.65490        0.45600
H          2.11720       -1.91530       -0.07380
H          0.55430       -2.76790       -0.09680
H         -1.29630       -1.78390       -1.80230
H         -0.81570       -0.44580       -2.85480
H          0.04860       -1.98580       -2.93030
H          2.25780       -0.78220       -2.53420
H          1.41340        0.77040       -2.47580
H          2.46350        0.28040       -1.13490
