14
gdb 9563	4.298	1.3315	1.25246	2.4825	67.77	-0.3058	-0.0151	0.2908	973.5369	0.106836	-341.605225	-341.597349	-341.596405	-341.637408	28.182
C         -0.05260        1.54050       -0.05280
C          0.01790        0.02310       -0.01600
C          1.33980       -0.67750       -0.23740
C          0.73260       -0.69160        1.14860
C          1.31240        0.09480        2.20060
N          1.77970        0.73250        3.04480
C         -1.16210       -0.65460       -0.49910
N         -2.11020       -1.18950       -0.88930
H          0.85960        1.97560        0.36140
H         -0.16890        1.88720       -1.08310
H         -0.90120        1.90470        0.53210
H          1.34630       -1.61520       -0.77890
H          2.20080       -0.04000       -0.39930
H          0.28890       -1.62390        1.47910
