13
gdb 3697	7.55069	2.00627	1.60085	2.6279	55.64	-0.2146	0.0456	0.2602	736.919	0.102772	-340.660793	-340.654071	-340.653127	-340.691202	24.407
C         -0.02630        1.47680       -0.02880
C          0.00420       -0.01680        0.04710
N         -0.11910       -0.74780       -1.05470
N         -0.04780       -2.03570       -0.61740
C          0.11570       -2.11700        0.71960
O          0.20220       -3.33940        1.28860
C          0.15630       -0.82740        1.20490
H          0.90220        1.91670        0.35200
H         -0.15680        1.79050       -1.06670
H         -0.84880        1.89180        0.56460
H         -0.11580       -2.79840       -1.26850
H          0.31560       -3.22910        2.23750
H          0.27630       -0.51590        2.23000
