16
gdb 2430	5.45213	2.82377	2.40274	1.6544	63.69	-0.2367	0.0929	0.3297	625.3227	0.138325	-288.590006	-288.584129	-288.583185	-288.619206	23.365
C         -0.05990        1.46980        0.04580
C          0.10140       -0.01620       -0.04150
C          0.06070       -0.88120       -1.29320
C         -0.26570       -2.01940       -0.31090
C          1.00000       -2.23130        0.54120
C          0.68130       -0.84380        1.06510
N         -0.78470       -0.96710        0.72490
H          0.83460        1.98330       -0.32510
H         -0.91650        1.80730       -0.54730
H         -0.22440        1.78130        1.08200
H         -0.80540       -0.62220       -1.90910
H          0.95170       -0.97020       -1.92500
H         -0.90860       -2.85060       -0.59400
H          0.83930       -2.98660        1.31490
H          1.95170       -2.41660        0.03110
H          0.99940       -0.39440        2.00000
