16
gdb 17573	3.56816	2.43896	1.96866	3.0281	63.	-0.2439	0.0757	0.3195	737.416	0.130696	-383.680515	-383.674248	-383.673304	-383.710472	25.582
C         -0.00280        1.50840        0.09390
C          0.02420        0.01200       -0.01590
C          0.91660       -0.80870       -1.00400
C          0.72440       -1.81140        0.16580
O          0.69930       -0.68340        1.07400
C         -0.78870       -2.15230        0.02170
O         -1.59920       -1.57380        1.04640
C         -1.31230       -0.79620       -0.11790
H          1.01040        1.91620        0.14120
H         -0.51450        1.94550       -0.77000
H         -0.54080        1.80980        0.99820
H          0.51820       -1.06270       -1.99130
H          1.93510       -0.42060       -1.06670
H          1.43630       -2.59180        0.42990
H         -1.16050       -3.04080       -0.47630
H         -2.14830       -0.48640       -0.73570
