18
gdb 6877	2.73909	1.65981	1.41314	0.8499	75.03	-0.2292	0.0499	0.2791	984.9122	0.150386	-347.763714	-347.754484	-347.75354	-347.796722	34.634
C         -0.14120        1.53990       -0.03980
C          0.02740        0.04330        0.07560
C          1.38640       -0.64120       -0.16440
C          2.56770        0.11990       -0.42960
C          3.56630        0.75620       -0.65030
C          0.71170       -0.63310        1.21800
C          1.32530        0.12250        2.37180
O          0.09110       -1.83680        1.58520
H          0.76160        2.07840        0.25640
H         -0.36050        1.81900       -1.07550
H         -0.97070        1.88920        0.58430
H         -0.80260       -0.53880       -0.31470
H          1.32660       -1.59850       -0.67380
H          4.44930        1.31120       -0.84840
H          1.82170        1.03710        2.04420
H          0.55690        0.37730        3.10830
H          2.08170       -0.49630        2.87010
H          0.75940       -2.40280        1.98890
