20
gdb 19194	3.01426	1.98242	1.63087	1.5891	73.71	-0.2424	0.0722	0.3145	897.9359	0.178785	-348.992775	-348.98521	-348.984266	-349.024035	30.256
C         -0.16660        1.61440       -0.04710
C          0.03020        0.10540       -0.01690
C          1.17770       -0.60430       -0.81130
C          2.44800        0.05670       -0.24650
C          2.08320        0.03940        1.28000
C          0.69810       -0.62710        1.19510
C          1.00160       -1.79030        0.19380
O         -0.00640       -2.73770       -0.05790
H          0.74840        2.16780        0.17970
H         -0.51160        1.93950       -1.03510
H         -0.92540        1.92000        0.68200
H         -0.93300       -0.36190       -0.25250
H          1.12210       -0.76220       -1.88970
H          3.34460       -0.52930       -0.46830
H          2.61120        1.06620       -0.63260
H          2.78540       -0.55600        1.87050
H          2.04900        1.03940        1.72000
H          0.16170       -0.80770        2.12810
H          1.90040       -2.37880        0.40200
H         -0.83170       -2.28190       -0.24940
