13
gdb 4313	4.15168	1.89039	1.29962	3.4012	64.45	-0.2171	-0.0258	0.1913	860.3171	0.098849	-394.862572	-394.856049	-394.855105	-394.893049	25.186
N          0.03750        1.35880        0.13410
C         -0.02550       -0.00330        0.05120
C         -1.21190       -0.70300        0.02880
C         -1.21980       -2.13320       -0.00900
O         -2.16720       -2.89840       -0.03120
N          0.10670       -2.66650       -0.02310
C          1.21530       -1.90190       -0.00810
N          1.21650       -0.60720        0.02780
H          0.92930        1.77170       -0.08510
H         -0.78090        1.89840       -0.09090
H         -2.17030       -0.19970        0.04520
H          0.16810       -3.67490       -0.05220
H          2.16540       -2.43110       -0.02950
