11
gdb 23806	3.39988	2.35058	1.38975	2.9323	58.2	-0.2488	-0.0778	0.171	780.5364	0.071941	-438.657238	-438.651096	-438.650152	-438.687747	22.771
F          0.04980        0.05950        0.19450
C         -0.02160        1.36600        0.06620
C         -1.18830        2.01870       -0.04050
C         -1.12670        3.44990       -0.17580
N         -0.05130        4.15580       -0.20320
O          1.15290        3.45750       -0.09060
C          1.25030        2.08170        0.04540
N          2.36840        1.49720        0.14380
H         -2.13570        1.49590       -0.02600
H         -2.03720        4.03410       -0.26640
H          3.13460        2.17140        0.10780
