16
gdb 16475	3.0118	2.6193	1.71455	3.3713	68.43	-0.232	0.012	0.2441	789.7401	0.130753	-346.580327	-346.573498	-346.572554	-346.611089	26.454
C         -0.00780        1.49220        0.04110
C         -0.02760       -0.00300       -0.04020
C         -0.94860       -0.90130        0.80310
C         -1.08550       -2.25340        0.09460
C          0.43070       -2.11740       -0.22090
C          0.53090       -1.05960        0.95320
C          0.50000       -0.87850       -1.13510
O          1.02060       -0.65020       -2.19270
H          0.93950        1.88710       -0.33850
H         -0.81460        1.92940       -0.55670
H         -0.13420        1.83680        1.07250
H         -1.64130       -0.43290        1.49210
H         -1.28150       -3.05550        0.81130
H         -1.76950       -2.33760       -0.75730
H          1.07450       -2.97530       -0.39210
H          1.24110       -0.90510        1.75090
