16
gdb 6654	7.44936	0.8144	0.74428	1.9138	67.88	-0.2698	0.0129	0.2827	1463.297	0.127102	-383.747084	-383.737654	-383.73671	-383.783093	31.591
C         -0.18020        1.45560        0.01170
C          0.07470       -0.03210        0.00140
O          1.15490       -0.56370       -0.01230
O         -1.09250       -0.71580        0.00910
C         -0.97570       -2.14710        0.00020
C         -2.40110       -2.70310        0.01010
C         -2.41050       -4.16000        0.00260
C         -2.38950       -5.36120       -0.00440
H          0.77110        1.98580        0.00400
H         -0.77440        1.74070       -0.86120
H         -0.75510        1.73180        0.90010
H         -0.42780       -2.46840       -0.88980
H         -0.41180       -2.47810        0.87670
H         -2.92630       -2.32520        0.89550
H         -2.94200       -2.31590       -0.86160
H         -2.38290       -6.42290       -0.01090
