13
gdb 3117	6.09769	2.15125	1.85014	3.4012	59.48	-0.2387	0.0134	0.252	679.601	0.103622	-303.462312	-303.456371	-303.455427	-303.49196	22.294
N          0.00660       -1.18030       -0.08210
C          0.00120       -0.02240       -0.04250
C         -0.00250        1.39690        0.02520
C          0.30170        2.28870       -1.17140
C          1.15150        2.42570        0.04010
N          0.45790        3.26850        1.02460
C         -0.62570        2.23490        1.15470
H          0.74800        1.76320       -2.00850
H         -0.39260        3.08360       -1.42830
H          2.22180        2.26070        0.05360
H          0.98550        3.33240        1.88820
H         -1.63480        2.62140        0.98130
H         -0.59540        1.70530        2.11000
