14
gdb 16086	4.66027	1.79432	1.52992	1.6286	68.35	-0.2482	-0.008	0.2401	821.758	0.107757	-341.527596	-341.520983	-341.520039	-341.558124	25.638
C         -0.00550       -1.17550       -0.00560
C          0.02610        0.02620       -0.01050
C         -0.00520        1.45870        0.00200
C          0.41490        2.24620       -1.19170
N          1.29590        2.21210        0.00010
C          0.99690        3.30760        0.87130
N         -0.12970        3.35860        1.45490
C         -0.89800        2.17970        1.02920
H         -0.01580       -2.23740       -0.00480
H          0.80810        1.72240       -2.05650
H         -0.11160        3.17480       -1.39890
H          1.77370        4.05360        1.01300
H         -1.86680        2.48850        0.62350
H         -1.09250        1.53270        1.89070
