15
gdb 21070	6.59021	1.27121	1.09256	1.5331	64.42	-0.245	0.0018	0.2468	1053.5855	0.119792	-395.979081	-395.971032	-395.970088	-396.013127	27.14
C          0.07940        1.41050        0.03050
N         -0.03380       -0.03270        0.00590
N         -0.17790       -0.71110       -1.12610
C         -0.17100       -1.98580       -0.73060
C         -0.01030       -2.02320        0.66280
C          0.02990       -3.20190        1.58140
O          0.47130       -4.32200        0.82870
N          0.08220       -0.76750        1.10760
H          1.12770        1.71590        0.10470
H         -0.34780        1.79410       -0.89510
H         -0.46840        1.79610        0.89140
H         -0.27270       -2.79580       -1.43280
H          0.69810       -2.97970        2.42650
H         -0.97330       -3.38080        2.00150
H          0.36880       -5.10600        1.37550
