16
gdb 18623	3.13471	2.08415	1.77549	4.4851	64.01	-0.2612	0.0103	0.2716	810.943	0.131979	-383.77679	-383.769883	-383.768939	-383.807807	26.257
C         -0.06820        1.54770        0.07930
C          0.05170        0.04400       -0.04800
C          0.68080       -0.66160       -1.21340
C          1.62560        0.14860       -2.08720
O          2.66170        0.65030       -1.22750
C          2.61630        0.06730        0.01320
O          3.49290        0.21580        0.81390
C          1.35480       -0.72580        0.14020
H          0.80300        2.07190       -0.32030
H         -0.95360        1.90670       -0.45660
H         -0.17520        1.83580        1.12970
H         -0.79440       -0.49490        0.37150
H          0.19520       -1.52420       -1.65310
H          2.08900       -0.47670       -2.85810
H          1.14880        1.00550       -2.57360
H          1.38190       -1.59760        0.77960
