17
gdb 4461	3.59985	1.67777	1.16224	1.2195	73.17	-0.1645	0.0573	0.2218	1020.8803	0.143051	-360.07321	-360.064202	-360.063258	-360.106823	32.366
C          0.09790        1.52740        0.11630
C          0.03640        0.04360       -0.00480
C          0.04820       -0.75930       -1.12590
N          0.14260       -0.27640       -2.46030
C          0.00850       -2.12210       -0.69280
C         -0.03890       -2.11220        0.68400
N         -0.13840       -3.13250        1.65650
N         -0.03460       -0.80290        1.08850
H          0.40610        1.94790       -0.84500
H         -0.86490        1.98450        0.38530
H          0.82830        1.84690        0.87040
H         -0.72760        0.14070       -2.77470
H          0.35800       -1.03160       -3.10020
H          0.03360       -3.00080       -1.32120
H          0.76560       -3.36980        2.05720
H         -0.51510       -3.97790        1.24500
H         -0.15690       -0.51900        2.04520
