22
gdb 7552	3.15773	1.26203	1.06576	1.0138	79.81	-0.2495	0.0844	0.3339	1238.2955	0.19798	-350.188275	-350.178336	-350.177392	-350.222903	35.872
C          0.12590        1.37850       -0.10400
O          0.28360       -0.01790       -0.11780
C          0.46980       -0.56270        1.17630
C          0.55270       -2.06680        1.06150
C         -0.71480       -2.70540        0.52250
C          1.87930       -2.67670        0.66460
C          1.36210       -2.85810        2.07220
C          2.07880       -2.25960        3.26510
H          1.01040        1.88840        0.31190
H         -0.01290        1.70440       -1.13810
H         -0.75190        1.68790        0.48650
H          1.38040       -0.14230        1.62980
H         -0.37690       -0.27630        1.82640
H         -0.96640       -2.29320       -0.45890
H         -0.59840       -3.78870        0.42020
H         -1.56450       -2.52250        1.19200
H          1.87480       -3.52370       -0.01340
H          2.71870       -2.00270        0.52300
H          0.94050       -3.83910        2.28150
H          2.57910       -1.31850        3.02090
H          1.39090       -2.06680        4.09640
H          2.84980       -2.94830        3.62830
