17
gdb 2969	4.23496	1.93049	1.42276	0.6542	69.83	-0.2568	0.0558	0.3126	875.8543	0.146825	-272.539307	-272.531433	-272.530489	-272.571161	29.226
C          0.10350        1.42010        0.09990
C         -0.08440       -0.10570       -0.02700
C         -1.50510       -0.46030       -0.02260
C         -2.67560       -0.73460       -0.03610
C          0.61330       -0.65330       -1.26780
C          2.08750       -0.96370       -1.22350
C          1.07730       -2.08290       -1.31560
H          1.16890        1.66590        0.13430
H         -0.34160        1.93390       -0.75750
H         -0.37480        1.79940        1.00660
H          0.38290       -0.57820        0.84930
H         -3.70690       -0.98660       -0.04060
H          0.23190       -0.23890       -2.19720
H          2.69090       -0.73610       -2.09520
H          2.60640       -0.82840       -0.27950
H          0.91760       -2.69520       -0.43410
H          0.98750       -2.62340       -2.25110
