14
gdb 13308	6.05903	1.23484	1.08376	4.9281	62.15	-0.2683	0.0026	0.2709	1023.6104	0.108842	-378.746973	-378.739827	-378.738883	-378.779384	24.888
N         -0.09310       -1.17340        0.02090
C         -0.03400       -0.02150        0.08090
C          0.02670        1.43720        0.12740
C          1.46210        1.98560       -0.00650
C          1.51260        3.53920       -0.04030
O          2.36230        3.88730        1.07740
C          2.69610        2.70940        1.65410
N          2.27700        1.61900        1.16410
H         -0.59530        1.83410       -0.68370
H         -0.40820        1.78310        1.07180
H          1.91510        1.55060       -0.90310
H          1.96240        3.94000       -0.95120
H          0.53630        4.01030        0.11340
H          3.32600        2.80400        2.53150
