17
gdb 17614	4.13384	1.31083	1.14489	1.7852	66.29	-0.2649	-0.0391	0.2258	1070.9472	0.141268	-400.991236	-400.982752	-400.981807	-401.024632	30.519
C          0.15800        1.66460        0.17110
C         -0.04000        0.16660       -0.12420
O          0.61540       -0.19260       -1.31090
C          0.47250       -0.69170        1.02910
O          1.44780       -1.40360        0.86030
C         -0.23400       -0.64830        2.33810
C         -0.52140       -1.97950        2.97280
N          0.50300       -1.11000        3.52660
H          1.21630        1.88000        0.34590
H         -0.16860        2.23660       -0.70040
H         -0.41960        1.99510        1.03930
H         -1.12060       -0.03000       -0.22470
H          1.31510       -0.80910       -1.04210
H         -0.92640        0.17000        2.50420
H         -1.42380       -2.08200        3.56830
H         -0.21520       -2.86180        2.41810
H          1.41420       -1.43400        3.20020
