14
gdb 12426	3.83161	2.08441	1.38343	2.0008	67.38	-0.1951	-0.0293	0.1658	838.3	0.110545	-378.774679	-378.768029	-378.767085	-378.805582	25.351
O          0.00290       -0.06650        0.00360
C         -0.01350        1.14600        0.00960
N         -1.16920        1.84840       -0.31240
C         -1.55350        3.13740        0.09590
C         -0.76630        4.21740        0.17120
C          0.65560        4.23820       -0.12150
C          1.47190        3.17930       -0.05680
N          1.12280        1.87630        0.33840
H         -1.92160        1.19540       -0.47010
H         -2.60980        3.21130        0.33330
H         -1.23420        5.14850        0.47280
H          1.09800        5.18460       -0.41360
H          2.52580        3.28420       -0.29340
H          1.89270        1.24250        0.49000
