18
gdb 15711	2.92234	1.8468	1.27868	1.9204	63.5	-0.2519	0.0775	0.3294	972.9188	0.154141	-422.073669	-422.065537	-422.064593	-422.106391	29.733
C         -0.42010        1.49700       -0.18080
C          0.16040        0.10060       -0.05620
O          1.39430        0.02230       -0.77350
C          1.99850       -1.15160       -0.31160
O          1.66740       -1.28710        1.06500
C          0.57970       -0.38780        1.34610
C          1.10260        0.68270        2.30410
O          1.68040        0.08390        3.44560
H          0.27490        2.25290        0.19180
H         -0.63400        1.71770       -1.22970
H         -1.35640        1.57110        0.38040
H         -0.54760       -0.63120       -0.47980
H          1.62470       -2.03510       -0.85850
H          3.08330       -1.06640       -0.43260
H         -0.21640       -0.95950        1.83650
H          1.82620        1.32150        1.77340
H          0.28210        1.31730        2.65580
H          2.27990       -0.59270        3.10680
