14
gdb 15929	3.70283	1.92252	1.54622	3.626	62.01	-0.2512	-0.0041	0.2471	817.0228	0.10839	-378.677121	-378.670423	-378.669479	-378.708132	24.863
N         -0.14280       -1.17610       -0.25310
C         -0.06440       -0.03380       -0.09360
C          0.03790        1.40400        0.07580
C         -0.36920        2.29290       -1.13000
O          0.85230        3.05620       -1.04110
C          1.34690        2.26460        0.04540
C          0.93000        2.81740        1.42300
N         -0.25240        1.90960        1.42610
H         -0.44060        1.75890       -2.08440
H         -1.26890        2.90100       -0.97690
H          2.35670        1.88710       -0.11720
H          1.61140        2.60490        2.25320
H          0.71870        3.89070        1.38750
H         -1.16420        2.33770        1.54630
