17
gdb 6391	3.64195	1.26595	1.07726	2.2677	61.14	-0.2693	0.052	0.3213	1116.101	0.140795	-438.182779	-438.173512	-438.172567	-438.217165	32.888
C          0.02730        1.54170        0.06910
C         -0.03270        0.01970        0.06000
C         -1.45110       -0.53980       -0.01140
O         -2.15070       -0.10860       -1.16440
O          0.62770       -0.49330       -1.12770
C          1.97070       -0.67270       -1.04070
N          2.44840       -1.18210       -2.21540
O          2.63790       -0.44820       -0.05820
H          1.06580        1.87900        0.06090
H         -0.50080        1.94880       -0.79640
H         -0.45080        1.92700        0.97530
H          0.48450       -0.38670        0.93350
H         -1.40500       -1.63820        0.04210
H         -2.02170       -0.18530        0.85310
H         -1.62070       -0.38230       -1.92120
H          1.87610       -1.12690       -3.04030
H          3.44690       -1.16530       -2.33140
