18
gdb 15234	2.92127	1.55755	1.32068	3.1813	73.17	-0.2459	0.0157	0.2616	1021.7575	0.152778	-343.97409	-343.96524	-343.964295	-344.007501	31.728
C         -1.11730        1.03870        0.50350
C          0.09700        0.28160       -0.02790
N          0.74520       -0.45010        1.06360
C          0.37940       -1.82410        1.37560
C         -0.67410       -2.61780        0.63570
C          1.71930       -1.50480        0.75610
C          1.97190       -1.89980       -0.60820
N          2.19010       -2.20060       -1.70430
H         -0.82910        1.70090        1.32450
H         -1.56560        1.64180       -0.29160
H         -1.88300        0.35100        0.87630
H         -0.19330       -0.36040       -0.87090
H          0.83930        0.98810       -0.41500
H          0.40860       -2.02610        2.44580
H         -0.59890       -2.51890       -0.44840
H         -0.56650       -3.67950        0.87860
H         -1.67670       -2.30610        0.94580
H          2.61350       -1.49730        1.37450
