19
gdb 14098	3.08359	1.66681	1.41332	1.4474	71.82	-0.2379	0.0713	0.3092	979.3863	0.16534	-365.02851	-365.020265	-365.019321	-365.06087	31.435
C         -0.14710        1.47150       -0.04460
C         -0.01160       -0.02660        0.07040
N          1.33980       -0.58960       -0.14000
C          0.72170       -0.69420        1.17430
C          1.23650       -0.10190        2.49060
C          0.34970       -1.14330        3.23720
C          0.23750       -1.95180        1.91100
O         -0.97070       -2.56630        1.54010
H          0.72740        1.97120        0.37960
H         -0.22960        1.77360       -1.09410
H         -1.04100        1.82850        0.47950
H         -0.84030       -0.60010       -0.34580
H          1.27990       -1.48340       -0.62440
H          2.30610       -0.28220        2.62870
H          1.03170        0.95350        2.68170
H          0.77530       -1.65440        4.10250
H         -0.62060       -0.72110        3.51840
H          0.99280       -2.74510        1.87040
H         -1.66630       -1.90200        1.59720
