14
gdb 1740	5.41407	1.79584	1.66637	3.0985	57.47	-0.275	0.0239	0.2989	769.514	0.112668	-324.575851	-324.568737	-324.567792	-324.606985	26.059
O         -0.22210        1.41040       -0.16010
C         -0.02760        0.03220       -0.04700
C          1.09290       -0.50310       -0.93530
C          2.37720        0.10370       -0.58000
N          3.36330        0.62020       -0.26920
C         -0.31070       -0.62750        1.27760
C         -1.27590       -0.77500        0.11430
H          0.53030        1.85460        0.25030
H          1.17310       -1.59110       -0.84680
H          0.87370       -0.26950       -1.98330
H          0.28010       -1.48690        1.57590
H         -0.60930        0.02540        2.08930
H         -2.20230       -0.21500        0.15910
H         -1.34580       -1.73570       -0.38440
