19
gdb 17451	4.651	1.54174	1.38893	1.4881	75.67	-0.2139	0.0747	0.2886	981.7889	0.164766	-327.847861	-327.840113	-327.839169	-327.879246	30.49
C         -0.02150        1.48290        0.00230
C         -0.02250       -0.02660       -0.05390
C          0.71990       -0.70620       -1.13950
N          1.29060       -0.63280        0.25450
C          1.19520       -2.14550        0.30400
C         -0.13430       -2.78900        0.00010
C          0.71170       -2.25310       -1.12510
C          1.20840       -3.06460       -2.28480
H          0.91020        1.88550       -0.40440
H         -0.85920        1.89130       -0.57310
H         -0.11470        1.82890        1.03660
H         -0.91750       -0.48280        0.35630
H          1.18950       -0.15140       -1.94830
H          1.98940       -2.66470        0.82690
H         -0.09350       -3.87170        0.08660
H         -1.09730       -2.38000        0.28440
H          0.47780       -3.08200       -3.10320
H          2.14420       -2.65670       -2.68440
H          1.39560       -4.10110       -1.98690
