15
gdb 17940	3.44607	2.39725	2.13464	1.9203	65.41	-0.2199	0.0075	0.2274	708.0673	0.120668	-362.610707	-362.604696	-362.603752	-362.640294	25.107
O         -0.11450        1.40750       -0.02010
C          0.03060        0.04420       -0.00150
C         -1.00600       -1.00670        0.01070
N         -0.49190       -1.66780       -1.15600
C          0.81140       -0.88310       -1.02410
C          1.75940       -1.68460       -0.18020
C          1.29460       -1.71580        1.08470
C          0.10170       -0.86380        1.19900
H          0.65430        1.79960        0.41060
H         -2.05580       -1.00020        0.27630
H         -0.34990       -2.67400       -1.04710
H          1.16010       -0.47600       -1.97250
H          2.59210       -2.25210       -0.57650
H          1.68230       -2.32380        1.89330
H         -0.31480       -0.53230        2.14260
