22
gdb 13457	3.14339	1.26085	1.13463	0.9259	79.23	-0.2321	0.0806	0.3127	1214.5068	0.198236	-350.191333	-350.181404	-350.18046	-350.226122	35.628
C         -0.01430        1.45880       -0.08590
C         -0.19280       -0.02410       -0.36210
O          1.02400       -0.53070       -0.88970
C          0.98390       -1.89830       -1.15420
C          0.55420       -2.38720       -2.52590
C          0.05910       -1.42440       -3.58420
C          2.01820       -2.43360       -2.10290
C          3.07050       -1.52790       -2.70750
H          0.80210        1.62120        0.62350
H          0.22290        1.99670       -1.00850
H         -0.93130        1.88140        0.33550
H         -0.44830       -0.56240        0.56560
H         -1.01630       -0.19450       -1.07200
H          0.71240       -2.50160       -0.28570
H          0.05130       -3.35140       -2.53530
H          0.43690       -0.41390       -3.41510
H          0.37100       -1.73790       -4.58680
H         -1.03530       -1.37370       -3.58170
H          2.38780       -3.42600       -1.85640
H          2.71490       -0.50130       -2.80530
H          3.96300       -1.50330       -2.07300
H          3.37650       -1.88420       -3.69730
