17
gdb 3181	4.38356	2.28615	1.86772	1.7351	63.77	-0.2621	0.0967	0.3588	746.8521	0.147637	-309.686114	-309.678907	-309.677963	-309.717067	27.091
C          0.14510        1.61890        0.36020
C         -0.02810        0.15020        0.02420
C          0.89440       -0.49000       -0.98080
C          1.02500       -0.83060        0.48540
C         -1.45770       -0.30890        0.06590
C         -2.30040       -0.40110       -1.13460
O         -1.76540       -1.57560       -0.51430
H          1.20260        1.89900        0.35230
H         -0.37660        2.25810       -0.36160
H         -0.25140        1.84930        1.35640
H          0.48000       -1.25580       -1.62620
H          1.65600        0.13350       -1.43660
H          1.87600       -0.44250        1.03520
H          0.69620       -1.81660        0.79490
H         -1.96340       -0.12920        1.01810
H         -3.38020       -0.28540       -1.05570
H         -1.87080       -0.15470       -2.10420
