18
gdb 12809	3.50136	2.00705	1.56487	1.2552	72.5	-0.2236	0.0213	0.2449	864.6115	0.155162	-347.80439	-347.797274	-347.79633	-347.835113	28.913
O         -0.07990        1.38630        0.20730
C          0.01260       -0.00050        0.01280
C         -0.49620       -0.56540       -1.30650
C         -1.29470       -0.74340       -0.03380
C         -1.38870       -2.06620        0.70330
C         -0.06390       -2.85650        0.71860
C          1.12270       -1.97550        1.01610
C          1.14430       -0.68070        0.69510
H          0.60410        1.80510       -0.32680
H         -0.87600        0.15370       -2.02460
H          0.02770       -1.41210       -1.73710
H         -2.16820       -0.10400        0.04790
H         -1.68090       -1.85240        1.73900
H         -2.18300       -2.68760        0.27440
H         -0.13040       -3.66440        1.45580
H          0.08050       -3.35820       -0.24890
H          1.98640       -2.43030        1.49310
H          2.00860       -0.06170        0.92310
