11
gdb 454	7.85701	3.72703	2.64004	4.8739	42.52	-0.2632	0.052	0.3152	473.1926	0.087482	-322.47672	-322.471693	-322.470748	-322.505169	17.739
O         -0.00060       -0.01360        0.13320
C         -0.02860        1.18180        0.05740
N         -1.11000        1.99450       -0.22300
C         -0.82010        3.37950        0.09580
C          0.71670        3.34560       -0.01190
O          1.07070        1.97990        0.23310
H         -2.02420        1.59530       -0.08520
H         -1.26720        4.07400       -0.62060
H         -1.15190        3.65780        1.10580
H          1.05360        3.62560       -1.01630
H          1.21810        3.97600        0.72420
