18
gdb 19970	3.28634	1.87624	1.48931	1.6675	67.21	-0.2455	0.0732	0.3187	907.4457	0.153631	-384.896969	-384.889183	-384.888239	-384.929211	28.703
C         -0.15390        1.59550       -0.02270
C          0.07550        0.09140       -0.02840
C          1.43570       -0.45560       -0.51220
O          1.57330       -1.27860        0.66880
C          0.43100       -0.65960        1.29140
C          0.81490        0.17240        2.49060
C          2.08050       -0.05960        3.19800
O          1.91690        1.06550        2.32780
H          0.66060        2.12240        0.47970
H         -0.22480        1.97280       -1.04870
H         -1.09110        1.85250        0.48330
H         -0.75170       -0.41240       -0.53630
H          1.43400       -1.05630       -1.42840
H          2.22970        0.29900       -0.56870
H         -0.30700       -1.40860        1.61240
H         -0.02620        0.58820        3.04940
H          2.15680        0.17860        4.25770
H          2.74830       -0.83050        2.82350
