16
gdb 7523	5.00266	1.19304	1.12861	1.7196	65.09	-0.2435	0.0234	0.267	1053.8753	0.130246	-379.911678	-379.903419	-379.902475	-379.944391	30.631
N         -0.36350        1.44890       -0.10500
C         -0.07810        0.03530       -0.09950
C          1.05400       -0.46730       -0.99370
C          2.34610        0.10520       -0.60770
N          3.34210        0.59020       -0.27850
C         -0.32940       -0.66340        1.22410
C         -1.31290       -0.82300        0.08740
O         -2.55200       -0.20380        0.12620
H          0.34250        1.97490        0.40110
H         -0.39940        1.81490       -1.05220
H          1.12350       -1.55970       -0.94960
H          0.85680       -0.20690       -2.04170
H          0.31020       -1.49760        1.49200
H         -0.63840       -0.03790        2.05420
H         -1.35960       -1.78260       -0.41920
H         -2.35950        0.74320        0.21990
