13
gdb 23751	3.36772	2.23129	1.34209	0.6542	63.12	-0.2242	-0.0029	0.2213	829.708	0.096709	-406.633595	-406.627378	-406.626434	-406.663749	24.555
O          0.08170        1.37220       -0.06440
C          0.05590        0.01400       -0.05120
C          0.02240       -0.70410       -1.24300
C         -0.00370       -2.09680       -1.21380
C          0.00330       -2.78480       -0.00270
C          0.03680       -2.07430        1.19760
C          0.06240       -0.69430        1.15210
F          0.09520        0.03730        2.28720
H          0.10260        1.67480        0.85190
H          0.01740       -0.15530       -2.17780
H         -0.02970       -2.64640       -2.14830
H         -0.01720       -3.86810        0.01460
H          0.04320       -2.57060        2.16100
