13
gdb 10118	2.79502	1.46087	1.08353	3.9267	56.38	-0.3034	-0.0283	0.2752	1045.3608	0.093374	-435.751655	-435.743202	-435.742258	-435.785855	27.974
O          0.08240        1.40390        0.08430
C          0.04050        0.00790       -0.02400
C         -1.40030       -0.52630       -0.03910
O         -1.97870       -0.12480        1.21220
C         -3.06200       -0.81420        1.66180
O         -3.58930       -0.54990        2.69420
C         -2.18310        0.01110       -1.16290
N         -2.80640        0.39970       -2.05390
H         -0.35200        1.64840        0.90980
H          0.53100       -0.26190       -0.96350
H          0.56350       -0.49880        0.80060
H         -1.38460       -1.62140       -0.11540
H         -3.37070       -1.62450        0.97620
