16
gdb 20259	3.61546	3.06952	2.4383	1.4369	65.67	-0.2247	0.0852	0.3099	645.0504	0.133753	-346.552179	-346.547121	-346.546177	-346.580922	22.26
C         -0.02910        1.56950        0.02400
C          1.52340        1.51950        0.01980
O          2.01620        1.45080        1.35050
C          1.80090        0.12760        1.77260
C          0.55190       -0.61110        1.33660
C          1.92500       -0.86600        0.66960
C          1.45820        0.01620       -0.50180
C         -0.00470        0.02480        0.03960
H         -0.48940        2.10730        0.85640
H         -0.42180        1.94740       -0.92550
H          2.08320        2.28330       -0.52240
H          2.19820       -0.06450        2.76150
H         -0.00600       -1.23480        2.02630
H          2.57510       -1.73060        0.65020
H          1.71750       -0.20290       -1.53380
H         -0.79590       -0.55220       -0.44050
