15
gdb 2661	11.03888	0.85556	0.8442	2.8337	67.14	-0.2457	-0.0266	0.219	1343.845	0.122262	-308.506421	-308.497822	-308.496878	-308.542563	28.031
C          0.01290        1.45030       -0.45600
C         -0.00310        0.12790        0.33230
C         -1.33230       -0.46640        0.43040
C         -2.44290       -0.92550        0.51180
C         -3.75990       -1.54220        0.58080
C         -3.84350       -2.82540       -0.24860
O         -4.45440       -3.80140        0.09150
H          1.02870        1.85370       -0.50230
H         -0.34430        1.29800       -1.47810
H         -0.63220        2.19390        0.01950
H          0.68000       -0.58970       -0.13990
H          0.39190        0.29700        1.34220
H         -4.06100       -1.77880        1.60670
H         -4.52210       -0.85790        0.17600
H         -3.29540       -2.77870       -1.21480
