11
gdb 1827	6.45324	2.37848	1.75714	3.1921	48.63	-0.2778	-0.0052	0.2726	649.3632	0.080072	-376.634518	-376.628525	-376.627581	-376.665034	20.887
N         -0.06920        1.25640        0.00810
C         -0.03350        0.00190        0.00090
C         -1.24030       -0.91940        0.00270
N         -0.59240       -2.20970       -0.00660
C          0.76690       -2.13390       -0.01530
O          1.58510       -3.00310       -0.02550
O          1.10270       -0.77450       -0.01000
H          0.87050        1.65470        0.00480
H         -1.85370       -0.75010        0.89460
H         -1.86270       -0.74170       -0.88140
H         -1.05500       -3.10130       -0.01110
