20
gdb 7159	5.91769	0.79164	0.73672	1.4539	77.47	-0.2595	0.0524	0.3118	1526.8985	0.174123	-348.971334	-348.961221	-348.960277	-349.006601	35.983
C         -0.07610        1.62070        0.03480
C         -0.01510        0.08880       -0.02000
C          0.67590       -0.43740       -1.28800
C         -0.03460       -0.08600       -2.59020
O          0.64850       -0.75550       -3.64080
C          0.70530       -0.48270        1.22820
C          0.03280       -0.18240        2.48630
C         -0.54210        0.06660        3.51270
H          0.92910        2.05330       -0.04260
H         -0.67920        2.03160       -0.77970
H         -0.51510        1.95650        0.97820
H         -1.04310       -0.29780       -0.00160
H          1.70580       -0.05970       -1.33730
H          0.74820       -1.53100       -1.24120
H         -1.08900       -0.40510       -2.53380
H         -0.03150        1.00240       -2.75150
H          0.23480       -0.50890       -4.47300
H          0.79840       -1.57110        1.12240
H          1.73200       -0.09210        1.25980
H         -1.03990        0.28110        4.42550
