13
gdb 11197	4.81551	1.48028	1.14017	3.5942	63.96	-0.2389	-0.077	0.1619	958.2576	0.09561	-398.660498	-398.653589	-398.652645	-398.691875	25.231
O          0.01200       -0.03840       -0.00040
C          0.00260        1.17300        0.00930
C          1.22180        1.98080        0.00180
C          1.33470        3.32270        0.01130
C          2.79480        3.67250       -0.00240
C          3.50180        2.29850       -0.02180
O          4.68500        2.06650       -0.03650
N          2.47690        1.36740       -0.01740
H         -0.93870        1.75880        0.02480
H          0.51190        4.02210        0.02640
H          3.09610        4.25810       -0.87880
H          3.11600        4.24360        0.87660
H          2.60450        0.36790       -0.02650
