20
gdb 17629	3.20866	1.44794	1.08325	0.4312	70.98	-0.2453	0.066	0.3113	1132.6339	0.174641	-386.122227	-386.112528	-386.111583	-386.156839	35.187
C         -0.00890        1.54380       -0.06140
C          0.02420        0.01810       -0.02760
O          0.67200       -0.52350       -1.17360
C          0.64290       -0.52110        1.28120
O         -0.08880       -0.02610        2.40490
C          0.74900       -2.02940        1.28950
C          2.03970       -2.71940        0.93510
C          1.56070       -2.71160        2.36320
H          1.01170        1.94910       -0.05190
H         -0.50590        1.89520       -0.96960
H         -0.53060        1.93670        0.81390
H         -1.00390       -0.36660       -0.08580
H          1.55780       -0.14660       -1.21420
H          1.64950       -0.09130        1.39450
H         -0.86460       -0.58620        2.51480
H         -0.16030       -2.53720        0.97180
H          1.98590       -3.64310        0.37050
H          2.89250       -2.09800        0.68280
H          2.07820       -2.07710        3.07460
H          1.18200       -3.63540        2.78630
