18
gdb 658	4.29007	4.28816	2.44709	0.	62.98	-0.2913	0.087	0.3783	593.5711	0.169722	-235.729507	-235.723729	-235.722785	-235.758349	23.005
C         -0.02190        1.52830        0.04440
C          1.40790        2.08540       -0.01430
C          2.16410        1.56450       -1.24540
C          2.15680        0.02950       -1.30160
C          0.72700       -0.52760       -1.24290
C         -0.02920       -0.00660       -0.01180
H         -0.52940        1.87800        0.95060
H         -0.59750        1.92260       -0.80510
H          1.38900        3.18110       -0.01480
H          1.94880        1.78480        0.89420
H          1.68860        1.96020       -2.15400
H          3.19350        1.94040       -1.24640
H          2.66430       -0.32020       -2.20780
H          2.73240       -0.36480       -0.45210
H          0.18620       -0.22700       -2.15140
H          0.74600       -1.62330       -1.24240
H          0.44630       -0.40240        0.89680
H         -1.05860       -0.38260       -0.01080
