14
gdb 13060	4.32268	1.35971	1.08831	5.0239	60.	-0.2593	-0.0484	0.2109	1030.9402	0.105136	-419.698226	-419.690437	-419.689493	-419.731674	26.619
O         -0.05210        0.03310       -0.11550
C          0.01150        1.21870       -0.22190
O          1.01190        1.93870        0.34230
C          1.01100        3.33380        0.10520
C          2.19430        4.11790        0.72630
C          2.39110        4.89250       -0.61510
C          1.50100        3.82950       -1.27820
O          1.34730        3.41530       -2.38740
H         -0.71810        1.84460       -0.76690
H          0.04040        3.78000        0.36010
H          1.96850        4.70810        1.61370
H          3.02640        3.44360        0.93540
H          1.92040        5.88060       -0.62230
H          3.40320        4.98380       -1.01360
