15
gdb 17200	5.38472	1.61091	1.46145	1.4718	61.4	-0.2509	0.0728	0.3237	851.3391	0.119567	-399.689693	-399.683307	-399.682362	-399.719977	25.5
O          0.10570        1.44890       -0.06460
C          0.08120        0.06420       -0.06270
C          0.05280       -0.67970        1.31420
N         -1.36080       -0.10610        1.45840
C         -1.30480       -0.65740        0.02980
C         -0.54590       -1.87440        0.56630
C         -0.12550       -3.18750        0.09920
O         -1.11460       -3.01870        1.14760
H         -0.53370        1.71070        0.61570
H          0.78320       -0.30510       -0.81120
H          0.77490       -0.65160        2.12990
H         -1.92600       -0.72430        2.04500
H         -2.15840       -0.60340       -0.64540
H         -0.51350       -3.58710       -0.83620
H          0.82280       -3.60910        0.42820
