23
gdb 11618	5.01886	0.86081	0.77736	1.0773	83.15	-0.2294	0.0848	0.3142	1547.5889	0.210794	-330.304269	-330.294564	-330.293619	-330.33928	35.471
C         -0.08640        1.46910       -0.22570
C          0.02640       -0.03730        0.04620
C          0.80310       -0.29160        1.34670
C         -1.36900       -0.68620        0.05530
C         -1.36420       -2.21410        0.12920
N         -2.72570       -2.73860        0.07320
C         -3.25840       -3.01070       -1.25730
C         -2.86680       -4.12560       -0.35090
H          0.90170        1.93880       -0.27380
H         -0.59980        1.66750       -1.17240
H         -0.65220        1.96870        0.56980
H          0.59860       -0.48410       -0.78060
H          0.97430       -1.35720        1.52580
H          1.78240        0.19800        1.31840
H          0.25770        0.10830        2.21020
H         -1.95510       -0.29450        0.89680
H         -1.90500       -0.38850       -0.85530
H         -0.73440       -2.62390       -0.68450
H         -0.92340       -2.55340        1.07330
H         -4.30470       -2.76350       -1.41280
H         -2.61280       -2.82020       -2.11420
H         -1.96190       -4.67580       -0.60660
H         -3.62120       -4.70800        0.17060
