20
gdb 6226	3.51784	1.59664	1.49621	1.0635	70.89	-0.2446	0.0811	0.3257	980.5977	0.175387	-386.161796	-386.152941	-386.151997	-386.195164	32.907
C          0.02300        1.45800       -0.16940
C          0.02630       -0.02310        0.15790
O          0.24620       -0.81930       -1.00620
C          1.42070       -1.58910       -0.80210
C          1.59880       -1.60550        0.72610
C          0.76870       -2.71360        1.38690
C          3.05350       -1.63980        1.17570
O          1.06800       -0.31310        1.06330
H          0.98460        1.74670       -0.60170
H         -0.77310        1.67830       -0.88550
H         -0.14920        2.04250        0.73890
H         -0.94660       -0.32560        0.58160
H          1.26890       -2.58470       -1.23090
H          2.28710       -1.12110       -1.29170
H          1.20190       -3.69780        1.18160
H          0.74100       -2.56680        2.47030
H         -0.25820       -2.71210        1.01020
H          3.60400       -0.79720        0.74930
H          3.11970       -1.57810        2.26570
H          3.53350       -2.57100        0.85840
