18
gdb 13900	2.87764	1.62836	1.27272	2.222	63.99	-0.233	0.0498	0.2829	1006.576	0.151588	-422.042879	-422.033797	-422.032853	-422.076453	33.607
C          0.07840        1.32250       -0.34490
C          0.06150       -0.10750        0.19650
O          0.61960       -0.18490        1.50670
C         -1.33990       -0.69440        0.16340
C         -1.98510       -1.14490       -1.13630
O         -1.24630       -1.12340       -2.32150
C         -1.58900       -2.16090       -0.08970
O         -0.45620       -2.93280       -0.40840
H          1.08570        1.74170       -0.27150
H         -0.24000        1.33420       -1.39100
H         -0.60370        1.96560        0.22630
H          0.72400       -0.72750       -0.41170
H          0.11050        0.40430        2.07410
H         -2.01850       -0.23530        0.88130
H         -3.03300       -0.91970       -1.31060
H         -0.56080       -1.79910       -2.21890
H         -2.34290       -2.67760        0.50020
H         -0.76480       -3.75820       -0.79820
