19
gdb 14479	3.84901	2.1261	2.10031	1.7504	72.83	-0.2316	0.0791	0.3107	775.1709	0.168811	-327.932331	-327.926012	-327.925068	-327.962177	26.71
C         -0.00920        1.48490        0.02020
C          0.01700       -0.03020        0.01490
C          0.66920       -0.74060       -1.19840
C          0.38830       -2.16740       -0.74530
C          0.42090       -2.17200        0.74500
C          0.72140       -0.74810        1.19430
N         -0.88200       -2.18960        0.02790
C         -1.33430       -0.77830        0.04210
H          1.00270        1.90380        0.00110
H         -0.54510        1.87490       -0.85230
H         -0.50940        1.86930        0.91610
H          0.18390       -0.48540       -2.14660
H          1.74040       -0.53040       -1.28780
H          0.60980       -3.03600       -1.35350
H          0.66860       -3.04440        1.33760
H          1.79550       -0.53820        1.23810
H          0.27810       -0.49880        2.16440
H         -1.92040       -0.58050        0.94590
H         -1.95930       -0.57500       -0.83390
