18
gdb 14839	2.91381	1.60591	1.14369	1.989	73.45	-0.2517	0.0218	0.2735	1074.6102	0.152108	-347.750524	-347.741801	-347.740857	-347.784785	31.234
C         -0.09620        1.58220        0.05010
C         -0.04160        0.05170        0.00020
C          0.75090       -0.53900        1.15840
C          0.09210       -0.53070        2.55510
O          0.15000       -1.96940        2.65340
C          0.76340       -2.09210        1.34630
C         -0.00790       -2.90490        0.41890
C         -0.63220       -3.58240       -0.35370
H          0.90840        2.01730        0.00420
H         -0.67210        1.98340       -0.78910
H         -0.56770        1.93680        0.97340
H         -1.05690       -0.36110        0.00850
H          0.40940       -0.27290       -0.94540
H          1.76560       -0.13110        1.16400
H          0.65850       -0.04470        3.35810
H         -0.94290       -0.16460        2.57710
H          1.77460       -2.51110        1.43580
H         -1.18600       -4.18490       -1.03080
