8
gdb 3826	9.95365	2.01097	1.67297	2.2847	47.28	-0.3307	-0.0952	0.2355	640.0362	0.044413	-354.254979	-354.249909	-354.248964	-354.284007	17.407
N          0.03780       -1.13890       -0.00420
C         -0.01000        0.01590        0.00290
C         -0.01000        1.43630        0.01090
N         -1.11480        2.14820        0.02900
O         -0.70970        3.43730        0.03110
N          0.65560        3.54820        0.01440
C          1.10400        2.32650        0.00180
H          2.15940        2.10640       -0.01290
