12
gdb 3755	7.20853	2.2238	1.71797	1.5836	52.81	-0.2303	0.0013	0.2316	684.4113	0.091782	-356.699504	-356.6932	-356.692256	-356.730145	22.048
C          0.00690        1.37460        0.09170
N          0.00870       -0.06950        0.02410
N         -0.16450       -0.72870       -1.10920
C         -0.09760       -2.01510       -0.75540
C          0.12140       -2.06580        0.62950
O          0.25180       -3.16330        1.39610
N          0.18700       -0.82870        1.11250
H          0.96540        1.73690        0.47290
H         -0.15610        1.74510       -0.91930
H         -0.79330        1.72160        0.75090
H         -0.20390       -2.81110       -1.47260
H          0.39290       -2.86840        2.30420
