19
gdb 17134	5.35446	1.27326	1.20615	2.1187	71.29	-0.2393	0.0753	0.3146	1072.5431	0.166063	-365.022858	-365.014843	-365.013899	-365.055719	29.636
C         -0.38560        1.37230        0.14080
C          0.27270        0.00690        0.13550
C          0.81990       -0.52260       -1.20800
C          2.21080       -0.38960       -0.54270
O          1.61360        0.04270        0.70330
C          3.03440       -1.64280       -0.38060
C          3.82200       -1.85770        0.85460
N          2.62080       -2.67390        0.57980
H          0.21370        2.09810       -0.41810
H         -1.38010        1.31730       -0.31560
H         -0.49920        1.73810        1.16600
H         -0.34890       -0.71350        0.68310
H          0.53350       -1.54660       -1.45350
H          0.64280        0.12280       -2.07020
H          2.83550        0.40500       -0.97430
H          3.41690       -2.03670       -1.32160
H          4.76530       -2.39450        0.81440
H          3.74930       -1.09980        1.62920
H          1.86170       -2.28750        1.14000
