16
gdb 10934	4.37708	1.45957	1.3229	4.841	69.56	-0.2494	0.0199	0.2693	960.2237	0.130932	-342.756613	-342.749182	-342.748238	-342.788212	28.08
C         -0.05470        1.54200        0.00670
C          0.04120        0.04770        0.04390
C         -0.85160       -0.85760        0.84870
C          0.64320       -0.91900        1.05690
C          1.26260       -1.67980       -0.12430
N          0.69030       -0.67300       -1.06750
C          2.72720       -1.70380       -0.15260
N          3.88210       -1.73670       -0.14690
H          0.91080        1.98540       -0.25300
H         -0.78860        1.86720       -0.74030
H         -0.37380        1.93480        0.97670
H         -1.39870       -0.38130        1.65680
H         -1.37660       -1.68820        0.38000
H          1.13050       -0.72920        2.00330
H          0.89800       -2.70710       -0.25120
H          0.04910       -1.07020       -1.75060
