20
gdb 8954	4.10336	1.07441	0.89941	1.5239	67.73	-0.2599	0.0608	0.3207	1304.4792	0.174505	-423.271207	-423.26108	-423.260135	-423.306096	36.349
C         -0.03530        1.56860        0.06790
C         -0.01140        0.04050       -0.01110
C          0.74760       -0.48370       -1.23210
O          2.11200       -0.06290       -1.23970
C          0.66190       -2.01010       -1.35720
O         -0.70530       -2.37220       -1.43450
C          1.40360       -2.53140       -2.58500
O          1.14160       -3.93440       -2.63430
H          0.97920        1.97680        0.05630
H         -0.57330        1.99690       -0.78500
H         -0.53290        1.90950        0.98070
H          0.45830       -0.37670        0.89320
H         -1.02740       -0.36410       -0.04110
H          0.31280       -0.04650       -2.14030
H          2.50020       -0.32350       -0.39640
H          1.12820       -2.46380       -0.46180
H         -0.71160       -3.27690       -1.77270
H          1.01480       -2.02710       -3.48220
H          2.47580       -2.31930       -2.50210
H          1.40910       -4.26680       -3.49520
