18
gdb 18987	3.70169	2.15758	2.03982	1.6764	69.55	-0.2399	0.0665	0.3064	767.5698	0.156185	-347.74423	-347.737987	-347.737043	-347.774709	25.304
C         -0.08680        1.36130        0.50160
C          1.22340        1.68380       -0.28600
C          1.37990        0.18010       -0.64180
C          0.02060       -0.12940        0.07960
C         -0.59490       -0.59030       -1.28380
C         -1.17010        0.46810       -2.24140
O          0.14200        0.76000       -2.78800
C          0.74910       -0.28060       -1.99210
H          0.02450        1.48930        1.58140
H         -0.98850        1.89880        0.19730
H          1.09650        2.32880       -1.15660
H          2.02960        2.07950        0.33510
H          2.31700       -0.30830       -0.36960
H         -0.06290       -0.87090        0.87550
H         -1.06990       -1.57100       -1.28800
H         -1.83200        0.05410       -3.01280
H         -1.64670        1.35380       -1.80690
H          1.31900       -0.98720       -2.60290
