16
gdb 9497	2.92389	1.7026	1.53551	5.0997	65.09	-0.2566	0.0183	0.2749	903.1207	0.130507	-379.911629	-379.903475	-379.902531	-379.943822	30.499
N          0.00710        1.47640       -0.04980
C          0.02270        0.01880       -0.03740
C          0.17280       -0.54480        1.41030
C         -1.36170       -0.77440        1.46960
C         -1.40140       -0.68480       -0.07800
O         -2.44410       -0.02400       -0.72590
C          0.97810       -0.46550       -1.03280
N          1.70210       -0.89580       -1.82480
H         -0.42390        1.82470       -0.90150
H         -0.50730        1.84290        0.74420
H          0.74000       -1.47610        1.42500
H          0.61780        0.15250        2.12250
H         -1.72220       -1.69860        1.92330
H         -1.89000        0.06380        1.93630
H         -1.32470       -1.67150       -0.54050
H         -2.54830        0.84410       -0.32010
