19
gdb 16187	4.05057	1.57526	1.35808	1.8489	70.42	-0.2324	0.0728	0.3052	965.5393	0.167283	-365.043923	-365.036323	-365.035379	-365.07573	29.458
O          0.16730        1.35930        0.23660
C          0.05040       -0.03800        0.00100
C         -1.39060       -0.48090       -0.08600
C         -2.10650       -0.97570        1.12590
N         -1.66940       -1.92100        0.08650
C         -2.73260       -2.27290       -0.87640
C         -3.38080       -0.96120       -1.37810
C         -2.25710        0.08250       -1.20790
H         -0.27500        1.54770        1.07110
H          0.55590       -0.21790       -0.95470
H          0.57100       -0.63090        0.76700
H         -1.57350       -1.07240        2.06890
H         -3.16730       -0.76210        1.23280
H         -2.25130       -2.80810       -1.70230
H         -3.44890       -2.95860       -0.41300
H         -3.72880       -1.04090       -2.41080
H         -4.25220       -0.69610       -0.77220
H         -2.63330        1.08610       -0.99390
H         -1.64830        0.15610       -2.11690
