19
gdb 15680	3.40919	1.67554	1.19247	3.6231	71.89	-0.2352	0.0357	0.2709	1036.2802	0.167307	-365.121778	-365.11365	-365.112706	-365.154424	30.202
C          0.03970        1.57070        0.15280
C         -0.00980        0.04360        0.04270
C          0.57920       -0.50380       -1.26390
C          0.76570       -2.03230       -1.30320
C          0.63780       -2.39850       -2.79650
N         -0.23180       -1.34580       -3.29050
C         -0.28050       -0.22250       -2.50960
O         -0.88890        0.79350       -2.77800
H          1.07480        1.93100        0.13010
H         -0.49750        2.03030       -0.67860
H         -0.40790        1.90780        1.09300
H          0.53790       -0.40660        0.88080
H         -1.04740       -0.30260        0.13360
H          1.54590       -0.01210       -1.44950
H          1.71310       -2.36480       -0.87360
H         -0.04330       -2.51120       -0.74040
H          1.61610       -2.38780       -3.29930
H          0.19590       -3.38800       -2.95020
H         -0.61940       -1.33050       -4.22050
