19
gdb 5959	3.24864	1.14642	1.05175	5.1211	71.76	-0.278	0.041	0.319	1197.8034	0.163402	-365.078367	-365.068546	-365.067602	-365.112945	34.936
C          0.07810        1.57540       -0.00580
C          0.01770        0.03100        0.05010
C          0.85400       -0.49260        1.24110
C         -1.44480       -0.49180        0.09310
C         -2.26710       -0.06690        1.30770
O         -3.55040       -0.64970        1.14170
C          0.62060       -0.49070       -1.19020
N          1.09540       -0.89870       -2.16210
H          1.10760        1.91590       -0.14380
H         -0.52320        1.96310       -0.83260
H         -0.29760        2.00360        0.92720
H          0.48130       -0.07360        2.17950
H          0.80750       -1.58310        1.30530
H          1.90210       -0.20150        1.13340
H         -1.97100       -0.15560       -0.80650
H         -1.43420       -1.58620        0.05740
H         -1.79340       -0.41560        2.23780
H         -2.33680        1.02990        1.36420
H         -4.09430       -0.40140        1.89490
