12
gdb 4416	3.71457	2.06516	1.32726	3.0826	61.64	-0.2223	-0.0481	0.1742	832.8449	0.084628	-418.547386	-418.541089	-418.540145	-418.577799	24.073
O          0.04640        1.32680        0.00740
C         -0.05180       -0.00390        0.00120
C         -1.24110       -0.66520        0.00440
C         -1.17540       -2.07990       -0.00310
C          0.00850       -2.75730       -0.01310
C          1.26470       -2.06630       -0.01670
O          2.38830       -2.47740       -0.02480
O          1.12340       -0.62010       -0.00850
H          0.98600        1.55620        0.00330
H         -2.16920       -0.11440        0.01230
H         -2.10490       -2.64110       -0.00070
H          0.06070       -3.83740       -0.01870
