20
gdb 17189	4.63726	1.59293	1.4163	0.1599	80.37	-0.2634	0.1056	0.369	969.1143	0.177739	-311.799549	-311.792211	-311.791267	-311.830588	29.769
C         -0.18130        1.55390       -0.00380
C          0.04150        0.04890        0.02430
C          1.22190       -0.63020       -0.75590
C          2.19420       -0.10950        0.34830
C          0.94000       -0.63700        1.11300
C          0.99380       -1.84730        0.16100
C          0.15170       -3.06670        0.02950
C          1.66280       -3.17180        0.25700
H          0.73350        2.13500        0.13430
H         -0.62290        1.85550       -0.96040
H         -0.88270        1.84960        0.78470
H         -0.91270       -0.46900       -0.12150
H          1.38540       -0.63850       -1.83550
H          3.11410       -0.68230        0.48500
H          2.39100        0.96260        0.38190
H          0.77790       -0.65310        2.19270
H         -0.50060       -3.34750        0.85100
H         -0.22910       -3.34090       -0.94970
H          2.27300       -3.51490       -0.57310
H          2.00140       -3.52140        1.22770
