18
gdb 15406	4.53619	0.92897	0.82753	2.7758	70.28	-0.2592	-0.0399	0.2193	1394.7375	0.151248	-384.932528	-384.92357	-384.922626	-384.967105	31.206
C          0.10900        1.47450        0.47680
C         -0.03680       -0.02990        0.23760
C         -1.46530       -0.43440       -0.15610
C         -1.57810       -1.91960       -0.40550
O         -1.66520       -2.78440        0.71950
C         -2.79050       -2.74500       -0.16710
C         -4.04630       -2.16010        0.39100
O         -5.13850       -2.39390       -0.06060
H          1.13510        1.73360        0.75400
H         -0.14880        2.04630       -0.42160
H         -0.54960        1.81270        1.28430
H          0.65830       -0.34780       -0.55060
H          0.24960       -0.58200        1.14050
H         -2.16380       -0.12990        0.62950
H         -1.76310        0.09530       -1.07080
H         -0.91710       -2.29660       -1.19040
H         -2.94340       -3.62920       -0.78480
H         -3.89620       -1.49930        1.27140
