18
gdb 8798	4.95896	1.08528	0.91009	0.	68.99	-0.237	-0.0791	0.1578	1297.493	0.149949	-384.985112	-384.975269	-384.974324	-385.02122	33.271
C         -0.04570        1.56090        0.06380
C          0.01980        0.03970       -0.03390
C          0.73090       -0.45000       -1.27560
O          1.20590        0.27810       -2.11720
C          0.83730       -1.98830       -1.44470
O          0.36230       -2.71630       -0.60310
C          1.54840       -2.47800       -2.68640
C          1.61390       -3.99920       -2.78410
H          0.95670        1.99710        0.07730
H         -0.57280        1.98720       -0.79400
H         -0.56690        1.86520        0.97520
H          0.52360       -0.40740        0.83300
H         -0.97850       -0.41700       -0.02340
H          1.04460       -2.03090       -3.55330
H          2.54670       -2.02120       -2.69690
H          0.61150       -4.43540       -2.79760
H          2.13520       -4.30350       -3.69550
H          2.14090       -4.42550       -1.92630
