14
gdb 8750	2.48316	1.84709	1.18706	1.176	66.1	-0.2613	-0.0796	0.1817	990.3582	0.102714	-382.525524	-382.516496	-382.515552	-382.560672	30.247
C          0.21940        1.65370        0.46610
C         -0.12330        0.31530       -0.19600
C          0.47890       -0.84570        0.60240
O          1.09520       -1.75810        0.12450
C         -1.64230        0.09960       -0.26150
O         -2.41880        0.73010        0.42100
C         -2.08060       -0.92980       -1.18200
C         -2.42270       -1.78750       -1.95400
H          1.30260        1.79850        0.50140
H         -0.22510        2.48090       -0.09220
H         -0.17670        1.69530        1.48350
H          0.27980        0.23300       -1.20980
H          0.29700       -0.77120        1.69830
H         -2.73510       -2.54560       -2.63100
