13
gdb 5188	8.05017	1.23997	1.07447	4.9598	63.68	-0.215	0.0157	0.2307	1019.4118	0.097523	-394.810379	-394.803457	-394.802513	-394.84278	24.513
N         -0.10910        1.30250        0.00980
C         -0.00540        0.04560        0.00250
O         -1.14800       -0.69350        0.00730
C         -1.05620       -2.05150       -0.00040
C         -2.13710       -2.89370        0.00240
N         -1.57490       -4.15720       -0.00760
C         -0.22770       -4.00990       -0.01570
N          0.12170       -2.73860       -0.01150
H          0.82070        1.71780        0.00460
H          0.90000       -0.56240       -0.00780
H         -3.19780       -2.71950        0.01010
H         -2.08080       -5.02660       -0.00860
H          0.45150       -4.84820       -0.02440
