11
gdb 23672	3.98125	1.78868	1.23419	1.9115	54.8	-0.2704	-0.0322	0.2383	840.3595	0.072729	-446.713423	-446.707709	-446.706765	-446.743449	21.727
F         -0.00180        0.02760        0.00320
C         -0.02140        1.35570        0.01070
C         -1.23750        2.01620        0.03090
C         -1.16930        3.40700        0.03750
F         -2.31230        4.08290        0.05700
N         -0.06930        4.12450        0.02660
C          1.08660        3.44830        0.00720
C          1.17630        2.06340       -0.00160
H         -2.18040        1.48690        0.04080
H          1.98980        4.05170       -0.00170
H          2.12730        1.54750       -0.01740
