14
gdb 15024	2.52228	1.9904	1.16578	4.3178	68.1	-0.2663	-0.0023	0.264	980.2603	0.105546	-341.513024	-341.5051	-341.504156	-341.545651	28.388
C         -0.18410       -1.09840        0.04760
C         -0.04770        0.09280        0.01510
C          0.08680        1.55110       -0.00320
C          1.50950        1.95160       -0.00000
N          2.61260        2.29000        0.02710
N         -0.57010        2.12460       -1.18480
C         -2.00650        2.35700       -1.03630
C         -1.05130        3.49820       -1.02550
H         -0.29390       -2.15500        0.06810
H         -0.34760        1.94730        0.93520
H         -2.60160        2.13790       -1.91670
H         -2.47230        2.08550       -0.09100
H         -0.87570        3.99500       -0.07310
H         -0.93010        4.13130       -1.89810
