17
gdb 6944	2.63714	2.42683	1.73837	3.2196	70.39	-0.231	-0.0009	0.2302	830.9174	0.142675	-360.07814	-360.070145	-360.0692	-360.110003	30.145
C         -0.01220        1.53280        0.00580
C         -0.00100       -0.00160        0.00870
C         -1.42550       -0.56780       -0.05910
N          0.78890       -0.49740       -1.14540
C          1.75750       -1.16490       -0.65710
N          1.80690       -1.24120        0.73030
C          0.72880       -0.53110        1.25470
N          0.37650       -0.33060        2.45830
H          1.00670        1.93030        0.01700
H         -0.51360        1.90040       -0.89340
H         -0.53590        1.89840        0.89300
H         -1.92890       -0.20410       -0.95880
H         -1.40960       -1.66090       -0.09330
H         -1.98720       -0.25760        0.82600
H          2.52330       -1.66220       -1.24480
H          2.50420       -1.72580        1.27030
H          1.00750       -0.77590        3.12670
