16
gdb 14490	3.63985	2.03335	1.53039	2.1179	70.97	-0.2435	0.0411	0.2846	847.4416	0.128623	-346.493412	-346.48601	-346.485066	-346.524595	28.914
C         -0.16820        1.57490       -0.01500
C         -0.00050        0.05330        0.00510
C         -1.28350       -0.59720       -0.21770
C         -2.38310       -1.04470       -0.40790
C          1.22160       -0.64680       -0.69740
C          2.18820       -0.09900        0.37830
C          0.92020       -0.65650        1.06580
O          1.00030       -1.82600        0.16560
H          0.76840        2.11130        0.14500
H         -0.58330        1.89030       -0.97670
H         -0.87510        1.88100        0.76180
H         -3.34110       -1.47180       -0.57380
H          1.37920       -0.82260       -1.76180
H          3.07300       -0.71760        0.52600
H          2.41070        0.96690        0.42230
H          0.71570       -0.84410        2.12030
