15
gdb 12944	2.7503	2.16585	1.68857	1.8874	62.9	-0.2465	0.0103	0.2568	829.9892	0.11765	-399.763365	-399.75579	-399.754846	-399.794958	28.404
C         -0.02370        1.54640        0.01530
C          0.09120        0.04070        0.08970
C          1.35250       -0.73580       -0.14180
O          2.48660        0.00330        0.39760
C          1.97200       -0.11770        1.68850
N          2.49120        0.11660        2.80420
C          0.69200       -0.75070        1.24050
O         -0.06430       -1.64480        1.94890
H          0.90680        2.02790        0.32350
H         -0.24310        1.86280       -1.00960
H         -0.82960        1.90670        0.66150
H         -0.77320       -0.50820       -0.28470
H          1.56490       -1.49290       -0.88380
H          3.43750        0.48840        2.70700
H          0.53130       -2.18880        2.47860
