16
gdb 7708	3.30102	1.92768	1.27013	1.5395	68.06	-0.2569	-0.0121	0.2448	925.5078	0.133548	-379.988784	-379.981812	-379.980868	-380.020182	26.618
N         -0.07980        1.32650       -0.12780
C         -0.03340        0.06140        0.00360
C         -1.30570       -0.74700        0.10790
C         -1.13300       -1.97870        1.00210
C          0.02280       -2.83960        0.48400
C          1.30530       -2.05190        0.28090
O          2.41150       -2.54420        0.30500
N          1.14680       -0.69010        0.04730
H          0.85380        1.73560       -0.21120
H         -2.09200       -0.07810        0.46000
H         -1.58610       -1.06940       -0.90440
H         -0.92980       -1.66410        2.03260
H         -2.05790       -2.56190        1.02520
H          0.26230       -3.67250        1.14860
H         -0.24070       -3.27830       -0.48790
H          2.02390       -0.19510       -0.06050
