18
gdb 19975	3.24049	1.84045	1.48314	2.1828	66.7	-0.2529	0.0773	0.3303	905.6326	0.154071	-384.901208	-384.893505	-384.892561	-384.93356	29.05
O          0.22280        1.21310       -0.48430
C          0.02830       -0.06450        0.06320
C         -0.20580       -0.20950        1.58900
C         -1.31930       -1.25010        1.29590
C         -1.33800       -0.80480       -0.19510
C         -2.42240        0.15130       -0.61610
C         -3.77650        0.19040       -0.05460
O         -2.80280        1.16620        0.33250
H         -0.46650        1.78920       -0.13340
H          0.87250       -0.66820       -0.28190
H          0.64350       -0.52180        2.20100
H         -0.62450        0.71150        2.00390
H         -0.97980       -2.28270        1.40370
H         -2.24510       -1.13260        1.86170
H         -1.29190       -1.61210       -0.93370
H         -2.29730        0.54120       -1.62720
H         -4.59770        0.57090       -0.66030
H         -4.06410       -0.51360        0.72370
