15
gdb 4963	3.30645	2.30892	1.37098	0.9766	70.71	-0.2271	-0.0146	0.2125	863.281	0.121061	-362.743721	-362.736874	-362.73593	-362.774607	26.183
C         -0.03660        1.54840       -0.01970
C         -0.00070        0.04560       -0.03730
C         -0.08660       -0.71090       -1.19690
C         -0.04680       -2.10670       -1.14090
C          0.08030       -2.70440        0.10180
N          0.16590       -2.00640        1.24260
C          0.12550       -0.68570        1.15930
O          0.21290        0.00960        2.31720
H          0.87490        1.96170        0.42560
H         -0.13880        1.94910       -1.03150
H         -0.87190        1.91810        0.58470
H         -0.18550       -0.20520       -2.15330
H         -0.11290       -2.70780       -2.03980
H          0.11640       -3.78590        0.20240
H          0.29240       -0.65500        3.01570
