16
gdb 19824	3.67037	2.26612	1.92943	2.6737	63.15	-0.2458	0.0543	0.3	752.2733	0.130369	-383.664251	-383.657757	-383.656813	-383.694585	25.672
C         -0.14940        1.58280       -0.06370
C          0.06920        0.08900        0.05250
O          1.11120       -0.43640       -0.83050
C          1.72400       -1.15970        0.24290
C          2.90920       -0.44680        0.96560
O          2.63020        0.95010        0.98180
C          1.96770        0.13630        1.94920
C          0.75310       -0.56420        1.28490
H          0.76670        2.13560        0.13970
H         -0.49300        1.82840       -1.07390
H         -0.92860        1.89810        0.63960
H         -0.86970       -0.43900       -0.16750
H          1.84390       -2.23020        0.05750
H          3.94900       -0.74330        1.04960
H          2.10410        0.40050        2.99180
H          0.15330       -1.18640        1.94700
