16
gdb 662	6.13317	3.90634	3.01538	0.1319	59.31	-0.2634	0.0842	0.3476	515.3423	0.144832	-234.470922	-234.465379	-234.464435	-234.500807	20.966
C         -0.06710        1.44010       -0.32380
C          1.38040        1.62060        0.22980
C          1.44600        0.10770        0.57090
C          0.94200       -0.26560        1.99080
C         -0.50550       -0.44630        1.43700
C         -0.01430       -0.07440        0.01230
H         -0.85320        2.00240        0.19000
H         -0.14900        1.64960       -1.39350
H          2.09880        1.92970       -0.53380
H          1.48870        2.29450        1.08560
H          2.30920       -0.44420        0.19470
H          1.37340       -1.19140        2.38020
H          1.07420        0.51210        2.74960
H         -0.87420       -1.47190        1.52020
H         -1.26760        0.21980        1.85380
H         -0.27070       -0.76580       -0.79230
