22
gdb 14795	12.64265	0.54795	0.53575	0.2111	77.41	-0.2495	0.0868	0.3363	2128.0888	0.197579	-387.32419	-387.313471	-387.312527	-387.361213	35.753
C         -0.26460        1.76960       -0.38760
C         -0.13900        0.24760       -0.48880
C         -1.27780       -0.47770        0.21440
O         -1.08850       -1.86990        0.07520
C         -2.09530       -2.63480        0.69470
C         -1.76820       -4.10270        0.46750
O         -2.77610       -4.86700        1.08770
C         -2.57950       -6.25220        0.94380
H          0.56400        2.26700       -0.89970
H         -1.19620        2.12500       -0.84160
H         -0.25720        2.10290        0.65610
H         -0.12430       -0.06400       -1.53960
H          0.80890       -0.08610       -0.05110
H         -1.30730       -0.20110        1.28310
H         -2.24880       -0.17910       -0.21870
H         -2.14480       -2.43020        1.77660
H         -3.08760       -2.40740        0.27220
H         -1.71950       -4.30920       -0.61420
H         -0.77640       -4.33180        0.89040
H         -3.40520       -6.75550        1.45280
H         -2.57550       -6.55720       -0.11490
H         -1.63000       -6.58000        1.39660
