16
gdb 18136	3.31253	1.99514	1.56447	3.9336	68.33	-0.2501	0.0096	0.2597	845.8068	0.131354	-342.748702	-342.741431	-342.740487	-342.780007	27.418
C         -0.33900        1.48200       -0.05020
C         -0.00830        0.00800       -0.07140
C          0.60660       -0.73980       -1.18420
C          1.66920        0.07320       -1.92120
C          2.38940        0.19450       -0.54760
C          2.72410        1.50920       -0.00980
N          3.01330        2.54800        0.40770
N          1.32350       -0.60730        0.16730
H          0.28710        2.08510       -0.70910
H         -1.37930        1.61430       -0.36610
H         -0.24060        1.88650        0.96140
H         -0.73270       -0.58710        0.48260
H          0.23240       -1.69990       -1.52380
H          2.25280       -0.50470       -2.63790
H          1.33570        0.99730       -2.39830
H          3.30190       -0.40680       -0.53020
