12
gdb 4285	4.27657	1.90185	1.31642	4.7563	61.03	-0.2269	-0.0327	0.1941	839.4499	0.085416	-414.689462	-414.683046	-414.682101	-414.720075	24.013
O          0.05470        1.33060        0.00780
C         -0.05180       -0.00100        0.00120
C         -1.20070       -0.68880        0.00380
C         -1.16270       -2.14270       -0.00430
N         -2.22380       -2.85290       -0.00220
N          0.13820       -2.73240       -0.01430
C          1.15380       -1.98480       -0.01580
O          1.17110       -0.61160       -0.00860
H          0.99120        1.56550        0.00400
H         -2.14810       -0.16990        0.01160
H         -1.96030       -3.83980       -0.00880
H          2.17070       -2.36470       -0.02320
