14
gdb 19581	3.61006	2.42836	2.03827	2.9683	59.81	-0.2495	-0.0101	0.2394	697.9202	0.10842	-382.495493	-382.489784	-382.48884	-382.525104	23.144
O          0.00650       -0.04220        0.17640
C         -0.01330        1.13140       -0.01830
C         -1.03780        2.29200       -0.00490
O         -0.02820        2.91550        0.87190
C          0.97640        2.32170       -0.03080
C          0.70410        3.01810       -1.36940
C         -0.06060        2.24210       -2.41510
C         -0.82070        2.99560       -1.34980
H         -2.03100        2.23680        0.43430
H          1.98190        2.29600        0.38260
H          1.27180        3.89930       -1.64010
H         -0.07970        2.66870       -3.41250
H         -0.04450        1.15680       -2.40530
H         -1.42090        3.85960       -1.60540
