14
gdb 5091	3.36738	2.00564	1.26687	2.0623	60.39	-0.1718	0.0488	0.2206	890.297	0.107538	-415.870266	-415.862132	-415.861188	-415.902155	30.172
N          0.12310        1.41630       -0.05400
C          0.02590        0.01340       -0.02420
C         -1.06620       -0.82410       -0.08190
O         -2.40080       -0.45930       -0.03460
C         -0.58580       -2.16800       -0.08550
O         -1.37400       -3.28030       -0.10660
C          0.78290       -2.12450       -0.03950
N          1.14070       -0.77890        0.00900
H          0.46730        1.79120        0.82640
H         -0.79940        1.80960       -0.20480
H         -2.74820       -0.44400       -0.93370
H         -2.27290       -2.98200        0.07670
H          1.51780       -2.90910       -0.00310
H          2.06940       -0.42740       -0.14170
