14
gdb 9866	6.05871	0.92865	0.86186	1.2366	82.21	-0.2329	-0.0225	0.2104	1295.546	0.104655	-345.329703	-345.321545	-345.320601	-345.362262	30.354
O         -0.05260        1.37300       -0.07780
C         -0.00350       -0.02790       -0.01790
C         -0.47550       -0.69390        1.26950
C         -1.36040       -0.68480        0.05200
C          1.05290       -0.64510       -0.76920
C          1.97660       -1.12490       -1.39010
C          3.00260       -1.68100       -2.08710
C          3.91690       -2.17200       -2.70550
H          0.77460        1.71160        0.28360
H         -0.00430       -1.62330        1.56640
H         -0.72390       -0.01350        2.07600
H         -2.19850        0.00230        0.04200
H         -1.50520       -1.60700       -0.49690
H          4.71680       -2.60750       -3.25090
