14
gdb 13474	3.3295	1.92185	1.30522	1.7759	58.54	-0.2499	0.0095	0.2594	883.169	0.108207	-415.916086	-415.908553	-415.907609	-415.948384	27.25
N         -0.08530        1.25340        0.33500
C          0.09390       -0.01860       -0.11780
O          1.13970       -0.45530       -0.55470
C         -1.18610       -0.84700       -0.06190
C         -1.03940       -2.36770        0.19980
N         -1.82700       -2.15590        1.42820
C         -1.93930       -0.80190        1.29150
O         -2.39340        0.07920        1.97930
H          0.73250        1.83710        0.41550
H         -0.89030        1.46460        0.90980
H         -1.82570       -0.58980       -0.91000
H         -1.52160       -3.02430       -0.52840
H         -0.00760       -2.68180        0.37020
H         -2.04990       -2.76450        2.20180
