17
gdb 19569	3.91846	2.06592	1.88803	1.7865	67.91	-0.2351	0.0823	0.3174	777.6079	0.144667	-363.803433	-363.79721	-363.796266	-363.833474	25.42
C          0.03480        1.49520       -0.00640
N          1.27580        0.67650        0.04510
C         -0.01350        0.02720        0.01260
C         -0.58370       -0.98100        1.03260
C         -1.77100       -1.13150        0.02600
C         -0.61840       -0.95670       -0.99540
O          0.17840       -2.13820       -0.80260
C          0.26340       -2.20300        0.64650
H         -0.16610        2.06980        0.89420
H         -0.21130        2.00900       -0.93320
H          1.72240        0.64080       -0.86870
H         -0.71470       -0.75520        2.08910
H         -2.30200       -2.08530        0.00020
H         -2.46100       -0.28730        0.05480
H         -0.74980       -0.76230       -2.05900
H          1.30810       -2.10990        0.96280
H         -0.14550       -3.15590        0.99990
