13
gdb 4668	7.208	1.23745	1.05613	4.6313	63.81	-0.2051	-0.0288	0.1763	1016.6798	0.096137	-398.646593	-398.639442	-398.638498	-398.677908	26.226
O          0.09050        1.33650        0.18590
C          0.06960       -0.00390       -0.00740
C          0.08980       -0.81050       -1.11270
C          0.04600       -2.16440       -0.62610
C          0.04750       -3.38430       -1.42210
O          0.00950       -4.51170       -0.97340
C          0.00130       -2.11140        0.75370
N          0.01620       -0.79270        1.11570
H          0.12900        1.76980       -0.67210
H          0.13050       -0.49430       -2.14370
H          0.08760       -3.21180       -2.52220
H         -0.03910       -2.90580        1.47910
H         -0.00760       -0.42950        2.05400
