15
gdb 4196	4.65413	1.62013	1.32	0.8787	64.76	-0.2338	0.0036	0.2374	902.3572	0.119022	-399.739905	-399.732947	-399.732003	-399.771065	26.556
O         -0.15830        1.31080       -0.07330
N          0.00710       -0.08930       -0.10900
C         -1.11580       -0.67130        0.03170
C         -2.47560       -0.03280        0.23650
O         -3.34890       -1.07360        0.67340
C         -2.72100       -2.31930        0.51210
C         -2.31310       -2.73000       -0.86760
C         -1.27950       -2.13750        0.09860
H          0.74830        1.62550       -0.15060
H         -2.43780        0.75610        0.99510
H         -2.84090        0.42210       -0.69480
H         -3.04630       -3.04630        1.24670
H         -2.21620       -3.79080       -1.07060
H         -2.64170       -2.13190       -1.71050
H         -0.46150       -2.75040        0.45250
