18
gdb 10552	2.91297	1.38038	1.05642	1.1132	74.26	-0.242	0.0527	0.2947	1142.9584	0.151696	-347.75242	-347.743397	-347.742453	-347.786101	33.131
O         -0.16480        1.48100        0.07020
C         -0.03700        0.07570        0.23220
C         -1.34610       -0.55810       -0.22670
C         -1.36250       -2.07490       -0.07890
C         -1.73420       -2.66110        1.27880
C         -2.70510       -2.75860        0.13900
C         -0.38520       -2.78860       -0.86020
C          0.43390       -3.37090       -1.52240
H          0.67600        1.88650        0.30000
H          0.79500       -0.32570       -0.36470
H          0.15490       -0.19060        1.28420
H         -2.16630       -0.13050        0.36070
H         -1.52290       -0.28210       -1.27220
H         -1.22090       -3.56110        1.59500
H         -1.94310       -1.95410        2.07450
H         -3.58240       -2.12090        0.15020
H         -2.85200       -3.72550       -0.32690
H          1.15460       -3.88900       -2.10480
