13
gdb 3301	6.21661	2.17813	1.95052	1.7893	59.01	-0.24	0.0194	0.2595	670.2103	0.100897	-307.229313	-307.22321	-307.222265	-307.259085	23.254
C         -0.03770       -1.22670       -0.06320
C          0.00900       -0.02810        0.01250
C          0.06630        1.42200        0.08440
O         -0.13260        1.96490        1.42930
C          1.08220        2.71410        1.31680
C          2.26070        1.80370        1.18960
C          1.42440        2.12880       -0.03010
H         -0.08030       -2.28620       -0.12640
H         -0.67730        1.86580       -0.58840
H          1.08870        3.72550        1.70430
H          3.23190        2.28870        1.20260
H          2.22610        0.81420        1.63570
H          1.81680        2.57590       -0.93240
