14
gdb 4649	6.84013	1.26465	1.07153	2.79	74.66	-0.1902	0.0202	0.2104	1041.2361	0.108056	-341.587402	-341.579782	-341.578838	-341.619021	28.779
N          0.11480        1.40720        0.12750
C         -0.02000        0.00680        0.04350
C         -1.10460       -0.83540        0.03070
C         -0.60500       -2.18230        0.00590
C          0.77560       -2.09970       -0.00490
N          1.11370       -0.77320        0.02340
C         -1.37210       -3.36970       -0.01900
C         -2.04020       -4.37260       -0.04010
H          0.32140        1.83030       -0.77330
H         -0.73980        1.82650        0.47300
H         -2.14290       -0.54390        0.02240
H          1.52100       -2.87650       -0.03340
H          2.04460       -0.40270        0.10900
H         -2.62450       -5.25830       -0.05830
