20
gdb 16834	3.56225	1.75096	1.40097	1.7939	73.98	-0.2537	0.0903	0.3441	972.4783	0.177663	-349.012073	-349.004182	-349.003238	-349.04395	30.566
C          0.02010        1.57650        0.03790
C          0.02330        0.04670        0.02280
C          0.76710       -0.57210       -1.18930
C          1.30840       -1.94990       -0.72670
C          2.57770       -2.39760       -1.45390
C          1.48210       -1.76100        0.77190
O          2.16070       -0.54220        1.12040
C          0.72660       -0.58690        1.21260
H          1.04470        1.95760        0.09640
H         -0.44150        1.98000       -0.86930
H         -0.53590        1.96740        0.89680
H         -1.01510       -0.31490        0.03720
H          0.12590       -0.65370       -2.07120
H          1.60990        0.07170       -1.45950
H          0.52830       -2.71300       -0.86290
H          3.39010       -1.68670       -1.27150
H          2.90840       -3.38420       -1.11200
H          2.41420       -2.45710       -2.53480
H          1.69360       -2.60900        1.42010
H          0.32480       -0.48220        2.21840
