11
gdb 21388	5.75836	2.23207	1.60856	4.5115	57.08	-0.25	-0.0243	0.2257	696.51	0.07628	-389.734638	-389.729179	-389.728235	-389.763987	20.81
N          0.00400        1.34840        0.00930
N          1.29370        1.83560       -0.00000
C          2.09850        0.78530       -0.01380
C          1.34190       -0.41830       -0.01280
C          0.01820        0.00090        0.00250
N         -0.71500       -1.12780        0.00300
N          0.15030       -2.21870       -0.01140
N          1.36570       -1.78720       -0.02090
H         -0.75950        1.99990        0.02230
H          3.16700        0.93450       -0.02350
H         -1.70650       -1.29280        0.01220
