22
gdb 15654	2.76445	1.74719	1.20447	0.1608	83.06	-0.234	0.0271	0.2611	1095.9511	0.201162	-313.091175	-313.082578	-313.081634	-313.124006	33.023
C          0.18030        1.54240        0.23210
C          0.32430        0.01790        0.17890
C          0.61020       -0.52280       -1.23930
C          1.94800       -0.04660       -1.77160
C          2.86280       -1.01520       -1.78080
C          2.29510       -2.32720       -1.29660
C          0.76500       -2.07720       -1.34360
C         -0.04680       -2.92290       -0.36360
H          1.10690        2.04670       -0.05980
H         -0.61190        1.88770       -0.44240
H         -0.07420        1.87920        1.24190
H          1.12670       -0.29690        0.85820
H         -0.59880       -0.43910        0.55480
H         -0.21600       -0.18860       -1.88260
H          2.13100        0.98310       -2.05900
H          3.90050       -0.89440       -2.07300
H          2.59240       -3.18280       -1.91430
H          2.64130       -2.55280       -0.27640
H          0.44220       -2.33900       -2.35920
H          0.25070       -2.74490        0.67490
H         -1.11970       -2.71660       -0.44440
H          0.09800       -3.98950       -0.56710
