20
gdb 8583	3.72818	1.79779	1.55937	1.3839	73.65	-0.2539	0.076	0.3299	898.5089	0.180358	-349.002057	-348.995111	-348.994166	-349.032804	28.672
O         -0.14530        1.46810        0.14820
C          0.01670        0.06040        0.01270
C          0.82970       -0.55910        1.17550
C          0.45260       -2.03420        1.39650
C         -0.00490       -2.69830        0.06120
C         -1.38920       -2.03080        0.32840
C         -1.03410       -2.11480        1.83810
C         -1.38800       -0.55830       -0.11450
H          0.73020        1.86820        0.14790
H          0.55870       -0.15130       -0.92100
H          1.90190       -0.45700        0.96350
H          0.62720        0.01370        2.08880
H          1.19790       -2.55530        2.00250
H          0.53070       -2.46210       -0.86260
H         -0.06610       -3.78490        0.16500
H         -2.28570       -2.55160       -0.01630
H         -1.27960       -3.09400        2.25910
H         -1.41550       -1.32940        2.49860
H         -2.08130        0.01850        0.50890
H         -1.73230       -0.45520       -1.14920
