18
gdb 8525	4.39928	1.876	1.59552	2.0589	70.59	-0.2281	0.0705	0.2987	853.5102	0.152572	-347.712072	-347.704935	-347.703991	-347.742807	28.648
C         -0.11860        1.56550       -0.00190
C         -0.06560        0.03880       -0.00640
C         -1.42780       -0.56150       -0.34890
C          1.16690       -0.60670       -0.69930
C          2.09840       -0.32590        0.52270
O          2.58490       -1.69590        0.62680
C          1.17560       -1.82510        0.27810
C          0.70730       -0.62810        1.16560
H          0.85030        2.01170        0.24210
H         -0.42450        1.94900       -0.98220
H         -0.84710        1.92930        0.73190
H         -1.76480       -0.22810       -1.33730
H         -1.40690       -1.65560       -0.35650
H         -2.18700       -0.24790        0.37680
H          1.45510       -0.61230       -1.75180
H          2.79870        0.48790        0.70460
H          0.75950       -2.82490        0.16410
H          0.47360       -0.65810        2.23120
