16
gdb 14691	8.20767	0.63366	0.61449	1.0989	76.37	-0.2501	0.0303	0.2804	1795.6702	0.126867	-346.519817	-346.510201	-346.509257	-346.55619	32.226
C         -0.12770        1.37190       -0.41050
O         -0.12090       -0.03660       -0.42420
C         -1.10620       -0.57920        0.43340
C         -1.06920       -2.03450        0.38500
C         -1.06080       -3.23630        0.36010
C         -1.03390       -4.69930        0.32570
C         -2.24110       -5.29860       -0.24690
C         -3.22660       -5.80210       -0.71190
H          0.65660        1.70510       -1.09360
H         -1.09320        1.78080       -0.74910
H          0.08030        1.77350        0.59440
H         -0.94430       -0.23480        1.47030
H         -2.10980       -0.22420        0.13990
H         -0.15740       -5.02880       -0.24930
H         -0.88230       -5.08910        1.34170
H         -4.09950       -6.24240       -1.12590
