14
gdb 13468	3.2861	1.82748	1.31834	3.1469	58.3	-0.2661	-0.0375	0.2286	902.9264	0.105766	-419.721632	-419.713951	-419.713007	-419.754372	26.695
C         -0.40230        1.41630       -0.07370
C          0.07400       -0.00510        0.11640
O          0.36590       -0.47940        1.18750
C          0.13200       -0.84150       -1.16060
C          0.37280       -2.34650       -1.02120
O         -0.97860       -2.61750       -1.54200
C         -1.24950       -1.29040       -1.68390
O         -2.24570       -0.76840       -2.06760
H          0.32580        1.97740       -0.67140
H         -1.34380        1.41800       -0.63450
H         -0.53050        1.90120        0.89420
H          0.70990       -0.32630       -1.93220
H          1.12760       -2.78550       -1.67420
H          0.47110       -2.69650        0.00590
