15
gdb 15099	8.26647	0.75031	0.71024	5.3797	79.46	-0.2821	-0.0366	0.2455	1515.125	0.118846	-325.503718	-325.495729	-325.494785	-325.536975	28.298
N          0.05620       -3.64590       -0.32930
C          0.03870       -2.49320       -0.18470
C          0.01830       -1.13900       -0.01490
C         -0.00340        0.05990        0.13440
C         -0.00280        1.50420        0.31810
C          1.38640        2.11790        0.19650
C          1.93960        2.47300       -1.15760
C          1.52460        3.56430       -0.20070
H         -0.67280        1.95690       -0.42480
H         -0.43530        1.73660        1.30050
H          2.09580        1.74190        0.92690
H          2.99680        2.31530       -1.33680
H          1.31220        2.29400       -2.02460
H          0.61920        4.11870       -0.42570
H          2.29650        4.15450        0.27990
