18
gdb 8367	5.30898	1.14463	1.11793	1.6548	68.2	-0.2355	0.0772	0.3126	1110.9327	0.153197	-384.867123	-384.859265	-384.858321	-384.899824	29.414
O          0.10500        1.37450        0.02880
C          0.06260       -0.04270        0.07250
C         -1.37140       -0.58520        0.05670
C         -1.43090       -2.08280        0.10400
C         -0.77730       -3.08800        1.09840
C         -1.35230       -3.86490       -0.10500
C         -2.65210       -3.03400       -0.02200
O         -0.78440       -2.84180       -1.01110
H         -0.21420        1.65140       -0.83590
H          0.63650       -0.49510       -0.74820
H          0.55680       -0.32520        1.00790
H         -1.92610       -0.17390        0.90820
H         -1.88270       -0.24730       -0.85490
H          0.31170       -3.05480        1.14940
H         -1.24820       -3.22230        2.07590
H         -1.21460       -4.90940       -0.38270
H         -3.29610       -3.16350        0.85180
H         -3.20840       -2.94860       -0.95670
