15
gdb 18002	4.27194	1.70391	1.45384	3.8775	60.83	-0.2337	-0.0278	0.2058	860.523	0.118733	-399.746101	-399.739131	-399.738187	-399.777843	25.49
O         -0.71030        0.78160        0.29940
C          0.35250        0.71600       -0.26140
C          1.45440        1.73780       -0.05700
O          2.74890        1.29550       -0.53380
C          2.91020        2.46240       -1.36730
C          2.44880        2.26340       -2.82530
N          1.03560        2.50480       -2.40630
C          1.46860        2.92530       -1.05050
H          0.60810       -0.09380       -0.97580
H          1.49170        2.03670        0.99790
H          3.83920        2.99790       -1.16480
H          2.85600        3.02880       -3.49820
H          2.62950        1.27230       -3.25270
H          0.56230        3.22870       -2.93150
H          1.15690        3.90840       -0.69860
