18
gdb 15780	5.87085	1.04621	0.98109	1.5571	73.91	-0.2573	0.0483	0.3056	1211.4287	0.151607	-347.752571	-347.743634	-347.742689	-347.786285	32.864
O         -0.47470        1.28890        0.11680
C         -0.11100       -0.08030        0.05430
C          0.72540       -0.39470       -1.20760
C          0.06640       -0.03000       -2.45450
C         -0.48350        0.26960       -3.48010
C          0.61580       -0.54810        1.30800
C          1.58780        0.35400        2.02940
C          0.25490        0.01750        2.65300
H          0.29640        1.81860       -0.11180
H         -1.06340       -0.61870       -0.02330
H          1.69040        0.12610       -1.12460
H          0.96430       -1.46580       -1.21280
H         -0.97070        0.53450       -4.38540
H          0.87590       -1.60360        1.28380
H          2.48790       -0.08590        2.44370
H          1.71770        1.36830        1.66650
H         -0.48920        0.80530        2.66560
H          0.23380       -0.65100        3.50610
