13
gdb 17155	4.26765	2.0274	1.63545	5.1809	63.15	-0.2514	-0.003	0.2484	762.3216	0.097419	-357.528444	-357.522555	-357.521611	-357.558449	22.864
N         -0.01670       -1.08510        0.02440
C         -0.01860        0.07080        0.03430
C         -0.04600        1.50870        0.04410
N         -0.69040        2.33460        1.11570
C         -0.15340        3.34760        0.14940
C          1.14450        2.51240       -0.10460
N          1.04420        2.50720       -1.59640
C         -0.38060        2.48430       -1.14470
H         -1.70920        2.27010        1.04160
H         -0.25660        4.42340        0.28800
H          2.07920        2.50740        0.45350
H          1.28430        3.42800       -1.97130
H         -1.23610        2.44480       -1.82050
