10
gdb 2562	3.79096	2.61463	1.73874	4.2269	52.95	-0.3062	-0.0372	0.269	674.7042	0.067274	-318.339586	-318.333317	-318.332373	-318.369804	21.809
N          0.06380       -1.11750        0.01240
C          0.00250        0.03670        0.01950
C         -0.02790        1.48240        0.03310
C          0.53290        2.16980        1.25510
N          1.25950        2.21810       -0.00120
C         -1.11640        2.08900       -0.70420
N         -1.99680        2.57740       -1.26960
H          0.07380        3.10480        1.55910
H          0.87620        1.52270        2.05670
H          2.02870        1.55180       -0.01720
