15
gdb 19259	3.04548	2.24399	1.75783	4.3712	61.05	-0.2357	-0.0307	0.205	780.7186	0.11867	-399.751242	-399.744139	-399.743195	-399.782615	26.634
O          0.49620        1.20510        0.24260
C          0.19110       -0.12620       -0.00110
C         -1.25930       -0.62080        0.13350
N         -2.03710        0.03710       -0.93910
C         -1.24480       -1.16930       -1.25140
C          0.20390       -0.67620       -1.49280
C          0.34230        0.30140       -2.62460
O          0.20080        1.49770       -2.52080
H          0.12220        1.71520       -0.49140
H          0.85580       -0.73850        0.61620
H         -1.75050       -0.99730        1.02250
H         -3.00900       -0.24990       -0.83510
H         -1.70060       -2.06440       -1.65380
H          0.89990       -1.50860       -1.62970
H          0.55940       -0.15100       -3.61840
