14
gdb 973	3.70058	3.2529	1.74999	0.8011	59.47	-0.1768	0.0585	0.2353	694.6721	0.113634	-324.613156	-324.605898	-324.604954	-324.644885	25.999
C          0.06210        1.52530        0.00340
C          0.05110        0.02650        0.00960
C         -0.03370       -0.80440       -1.08470
O         -0.12160       -0.57380       -2.42270
N         -0.01730       -2.10520       -0.67130
C          0.07850       -2.14000        0.70780
C          0.12090       -0.84430        1.14800
H          0.91920        1.92860        0.55510
H          0.12940        1.93050       -1.01430
H         -0.84180        1.95330        0.45470
H         -0.15930        0.37760       -2.56040
H         -0.06610       -2.89400       -1.29130
H          0.10890       -3.07800        1.23610
H          0.19660       -0.53000        2.17840
