16
gdb 8302	4.87167	1.21361	1.03915	2.8769	61.55	-0.2637	0.0062	0.2699	1104.5006	0.129435	-420.889992	-420.881902	-420.880958	-420.923387	28.208
C          0.36970        0.87210        0.39450
O         -0.46870        0.31580       -0.60540
C          0.20240       -0.43530       -1.58490
C          0.55770       -1.84610       -1.14740
C          1.32650       -2.71880       -2.15540
C          2.43270       -2.68300       -1.09970
O          3.52750       -3.11730       -0.95120
O          1.71570       -1.89550       -0.23260
H          0.84810        0.10480        1.01380
H          1.15670        1.49920       -0.05090
H         -0.26810        1.49840        1.02230
H         -0.48510       -0.51550       -2.43650
H          1.11570        0.07650       -1.93230
H         -0.29810       -2.32610       -0.66650
H          0.92100       -3.71110       -2.35640
H          1.59730       -2.23570       -3.09720
