17
gdb 7527	3.7421	1.27146	1.22243	3.4742	67.07	-0.2561	0.0232	0.2793	1061.4978	0.139811	-400.97486	-400.966126	-400.965182	-401.008032	31.806
C          0.01860        1.57200       -0.39630
C         -0.01350        0.10560       -0.04180
C          1.23740       -0.72810       -0.12450
C          0.62160       -0.40920        1.22270
O          1.21500        0.52920        2.06870
O         -1.17150       -0.57830       -0.48740
C         -2.29810       -0.38280        0.23410
N         -3.39020       -0.87520       -0.16290
H          0.92290        2.03680       -0.00030
H         -0.00740        1.69940       -1.48270
H         -0.84180        2.09880        0.02980
H          1.13920       -1.74030       -0.49930
H          2.15230       -0.21180       -0.39430
H          0.10300       -1.22700        1.72290
H          2.03430        0.15150        2.40560
H         -2.13540        0.20290        1.14780
H         -4.12930       -0.65240        0.50070
