17
gdb 17322	2.91119	2.4431	1.78705	1.5708	67.99	-0.2133	0.0519	0.2652	811.1511	0.140145	-363.757752	-363.750182	-363.749238	-363.789073	29.074
C         -0.17230        1.55910       -0.01730
N          0.16930        0.13820        0.08170
C          1.38290       -0.52690       -0.29590
C          2.69550        0.17610        0.22760
O          2.34280        1.39750        0.88600
C          2.19050        0.16280        1.59400
C          0.85810       -0.56440        1.12050
C          0.20340       -1.64460        1.92830
H          0.47550        2.07760       -0.72730
H         -1.20940        1.64240       -0.36450
H         -0.08480        2.06540        0.94670
H          1.37650       -1.28850       -1.06970
H          3.70070        0.07680       -0.16350
H          2.69960        0.05160        2.54440
H         -0.32380       -1.22310        2.79310
H         -0.52370       -2.18510        1.31730
H          0.94310       -2.35870        2.30740
