14
gdb 10114	2.85585	1.47486	1.12007	3.2548	59.73	-0.2743	0.0012	0.2755	1035.5999	0.106694	-415.886668	-415.878226	-415.877282	-415.920603	28.789
O          0.10480        1.29640        0.29580
C         -0.04630       -0.08480        0.03670
C         -1.53820       -0.46700       -0.07600
N         -2.24600       -0.07630        1.12590
C         -3.01550       -0.95620        1.82930
O         -3.22070       -2.10420        1.50350
C         -2.10900        0.18630       -1.27030
N         -2.49470        0.74610       -2.20500
H         -0.07850        1.77810       -0.51930
H          0.48700       -0.40130       -0.86890
H          0.37580       -0.61410        0.89520
H         -1.65430       -1.55150       -0.17330
H         -2.06160        0.84890        1.48350
H         -3.43410       -0.49560        2.74330
