16
gdb 16862	3.72803	2.01455	1.59597	4.4079	63.94	-0.2614	0.0146	0.2759	820.1159	0.132511	-383.77146	-383.764846	-383.763902	-383.802303	25.583
O         -0.12950       -0.05210       -0.30440
C         -0.04850        1.07750        0.09170
C         -1.18400        2.08670       -0.00570
C         -1.22600        3.08960        1.13100
C         -0.81980        2.67430        2.52700
C          0.10820        3.50700        1.67960
C          1.31110        2.86800        1.02480
O          1.10810        1.49090        0.67400
H         -1.06250        2.61930       -0.95970
H         -2.10630        1.50620       -0.08840
H         -2.00560        3.83990        1.04730
H         -1.31180        3.16200        3.36050
H         -0.56290        1.63580        2.70720
H          0.26120        4.54570        1.95610
H          1.59250        3.42760        0.12180
H          2.17760        2.85730        1.69220
