20
gdb 15825	3.81627	1.00735	0.84808	2.8084	71.56	-0.2622	0.0789	0.341	1363.1143	0.175113	-386.113276	-386.103735	-386.102791	-386.148156	33.69
C          0.08630        1.77390       -0.00520
C          0.03190        0.23880        0.04610
C          0.63950       -0.43440       -1.19750
C         -0.12450       -0.18010       -2.49140
O          0.50590       -0.93730       -3.51450
C          0.74110       -0.25890        1.28900
C          0.03450       -0.52940        2.54640
O          0.46260       -1.59870        1.69910
H          1.11920        2.12600       -0.11030
H         -0.48530        2.17090       -0.84830
H         -0.32430        2.21230        0.91010
H         -1.01720       -0.07660        0.13040
H          1.67780       -0.10380       -1.33210
H          0.67110       -1.51680       -1.03330
H         -1.17770       -0.48200       -2.36330
H         -0.12120        0.89240       -2.74030
H          0.04210       -0.77130       -4.34020
H          1.79930        0.00830        1.35220
H          0.55810       -0.44760        3.49800
H         -1.04360       -0.37880        2.59710
