15
gdb 12604	3.23325	2.25767	1.35351	3.2649	64.29	-0.2415	0.0062	0.2477	865.2209	0.12092	-396.048438	-396.040831	-396.039887	-396.080421	27.296
C         -0.05660        1.44910        0.03220
N         -0.02180        0.00270        0.01120
C         -1.14170       -0.80100        0.03970
N         -2.32600       -0.34250        0.09360
C         -0.62680       -2.24030       -0.01330
N          0.80830       -2.06020        0.07960
C          1.17110       -0.73330       -0.01900
O          2.28680       -0.27710       -0.10040
H          0.97490        1.79930       -0.01670
H         -0.62560        1.82760       -0.82130
H         -0.53530        1.80760        0.94810
H         -3.00830       -1.09920        0.10420
H         -1.03150       -2.82760        0.81860
H         -0.93860       -2.71730       -0.95200
H          1.47270       -2.76060       -0.20280
