19
gdb 13016	2.52371	2.47297	1.60566	2.0679	70.57	-0.2267	0.0672	0.2939	876.5432	0.166279	-365.047592	-365.039776	-365.038832	-365.079188	30.476
C         -0.20480        1.43050        0.02580
C         -0.01770       -0.06480        0.01030
C         -0.76920       -0.95780        0.93120
N          0.66570       -0.71120        1.14960
C          1.52900       -1.77670        0.59840
C          1.08890       -2.04390       -0.85640
C          0.44650       -0.70790       -1.29210
O         -0.65480       -0.84120       -2.17960
H          0.72320        1.94530       -0.24910
H         -0.97860        1.72070       -0.69270
H         -0.50270        1.77790        1.01810
H         -1.41820       -0.51550        1.68180
H         -1.09510       -1.93150        0.57600
H          2.55950       -1.40590        0.63100
H          1.48160       -2.66790        1.23230
H          1.92290       -2.34260       -1.49720
H          0.33100       -2.83030       -0.91910
H          1.21020       -0.05190       -1.74040
H         -0.31690       -1.11830       -3.03680
