16
gdb 9921	3.28792	1.48786	1.44531	2.26	67.9	-0.2283	0.0367	0.265	950.4023	0.127134	-383.67997	-383.671008	-383.670064	-383.713071	32.982
C         -0.02270        1.55380       -0.00810
C          0.00990        0.03400       -0.01390
C         -1.16030       -0.62080       -0.52910
C         -2.13030       -1.18130       -0.96950
C          1.35580       -0.69030       -0.26370
O          2.51560        0.05350       -0.42180
C          0.73240       -0.71470        1.10360
O          1.36210        0.09400        2.06580
H          0.95710        1.96750        0.23120
H         -0.31410        1.91970       -0.99620
H         -0.74530        1.92540        0.72360
H         -2.99040       -1.66650       -1.35900
H          1.33330       -1.57510       -0.89090
H          2.71230        0.43380        0.44640
H          0.26560       -1.61840        1.48660
H          1.91630       -0.47560        2.61080
