18
gdb 18098	4.41562	1.89578	1.37085	0.	82.93	-0.1942	0.0023	0.1965	915.986	0.156719	-310.702923	-310.696122	-310.695178	-310.734176	26.461
C         -0.03820        1.50710        0.01060
C          1.46750        1.94210       -0.00150
C          2.21900        0.63410       -0.01570
C          3.47910        0.18420       -0.03020
C          3.51540       -1.33430       -0.03880
C          2.00980       -1.76920       -0.02660
C          1.25820       -0.46130       -0.01250
C         -0.00190       -0.01130        0.00200
H         -0.56400        1.89480        0.89280
H         -0.58090        1.90440       -0.85710
H          1.70190        2.55550       -0.87740
H          1.71880        2.54620        0.87610
H          4.38250        0.78380       -0.03550
H          4.04120       -1.72200       -0.92100
H          4.05810       -1.73150        0.82890
H          1.75850       -2.37340       -0.90430
H          1.77530       -2.38270        0.84920
H         -0.90530       -0.61100        0.00740
