15
gdb 2757	4.41178	2.17635	1.58041	4.3813	62.45	-0.2393	0.0143	0.2536	780.6982	0.125589	-304.686259	-304.679244	-304.678299	-304.717258	25.092
C         -0.01180        1.49820       -0.02160
N         -0.01800        0.05860        0.11900
C         -1.26330       -0.63230        0.50950
C         -0.41570       -1.62300        1.34220
C          0.69960       -0.54120        1.25790
C          2.07590       -0.95970        0.99190
N          3.16270       -1.29710        0.79020
H          1.00670        1.84400       -0.22460
H         -0.63940        1.78420       -0.87140
H         -0.38610        2.02370        0.87700
H         -1.91910       -0.01500        1.14510
H         -1.84770       -1.02840       -0.32590
H         -0.76530       -1.87890        2.34120
H         -0.15230       -2.52670        0.79310
H          0.69910        0.09860        2.15690
