18
gdb 3515	6.20181	1.82642	1.69553	1.0794	67.9	-0.2224	0.0901	0.3125	807.0813	0.161259	-289.794376	-289.787572	-289.786628	-289.825266	25.893
C         -0.11930        1.13850       -0.44740
C          1.22580        0.98660        0.17710
N          0.30030       -0.13610        0.11700
C         -0.28850       -0.61560        1.35190
C         -0.82720        0.29910        2.50410
C         -1.96750       -0.73800        2.69940
C         -1.68900       -1.26630        1.26690
H         -0.84730        1.74600        0.08600
H         -0.22680        1.15450       -1.52860
H          2.11920        0.90360       -0.43630
H          1.37650        1.47710        1.13770
H          0.42560       -1.32900        1.77940
H         -0.16300        0.50120        3.34780
H         -1.22230        1.24960        2.13450
H         -1.71360       -1.47900        3.46240
H         -2.96650       -0.35160        2.91090
H         -2.30600       -0.74880        0.52550
H         -1.74380       -2.34140        1.08230
