10
gdb 21739	5.52229	2.32063	1.63398	4.1422	55.14	-0.2532	-0.062	0.1911	679.8931	0.061952	-413.424158	-413.418947	-413.418003	-413.453364	19.82
O         -0.06430        1.33860        0.01000
C          1.23770        1.77250       -0.00040
C          2.15750        0.75660       -0.01470
C          1.35650       -0.42380       -0.01310
C          0.05370       -0.00570        0.00180
N         -0.77390       -1.06650        0.00430
N         -0.09870       -2.12520       -0.00790
O          1.38350       -1.73970       -0.02020
H          1.35520        2.84400        0.00410
H          3.22900        0.86540       -0.02450
