13
gdb 21690	3.46982	2.36427	1.40699	1.6595	65.89	-0.2212	-0.0395	0.1817	808.9178	0.0973	-394.766931	-394.760305	-394.759361	-394.797476	25.61
N          0.07360        1.31880       -0.02260
C         -0.00310       -0.03210        0.02700
N         -1.18000       -0.58890        0.07480
O         -1.21460       -1.98890        0.18360
C         -0.08510       -2.69230        0.22420
C          1.15510       -2.16890        0.15610
C          1.30230       -0.74470        0.03200
N          2.36380       -0.02640       -0.08180
H          0.98430        1.68660       -0.25460
H         -0.75640        1.84830       -0.22650
H         -0.30050       -3.75160        0.31640
H          2.02160       -2.81770        0.18870
H          3.20290       -0.60790       -0.07760
