13
gdb 5437	3.5948	1.94952	1.27406	2.2349	68.82	-0.2282	-0.0143	0.2139	892.8313	0.095057	-361.471178	-361.46396	-361.463016	-361.502653	26.246
C          0.12750        1.49740        0.07870
C         -0.02500        0.02450        0.05250
C         -1.09660       -0.81930       -0.03380
N         -0.63760       -2.14400       -0.01470
C          0.64070       -2.02870        0.07880
O          1.09730       -0.75100        0.12530
C         -2.46360       -0.47230       -0.12870
C         -3.62300       -0.15860       -0.20890
H          0.73750        1.85130       -0.75970
H         -0.85860        1.96110        0.01200
H          0.60960        1.83320        1.00350
H          1.38370       -2.80930        0.12430
H         -4.64850        0.10750       -0.28000
