12
gdb 23898	4.90238	0.96808	0.95356	1.953	47.82	-0.3356	0.0229	0.3585	1139.3886	0.079986	-509.053422	-509.045691	-509.044747	-509.086772	26.364
F          0.01560        0.05970       -0.03100
C         -0.02620        1.40130        0.02160
F          1.24190        1.84120       -0.03230
F         -0.65460        1.83310       -1.07710
C         -0.72790        1.88530        1.27550
C         -0.00880        1.39050        2.54400
C         -0.67220        1.84900        3.76080
N         -1.20860        2.21970        4.71430
H         -0.75490        2.97710        1.24570
H         -1.75770        1.52170        1.24640
H          0.02720        0.29640        2.54920
H          1.02660        1.74580        2.54800
