18
gdb 18963	6.26831	1.40751	1.40106	1.02	72.68	-0.2448	0.0941	0.3389	958.8908	0.154164	-347.714489	-347.707508	-347.706564	-347.745809	26.835
C          0.18850        1.33040        0.17530
O         -0.31360        0.08160       -0.24390
C          0.45280       -0.51220       -1.25710
C          1.71770       -1.30950       -0.86700
C          0.86630       -2.51790       -0.33290
C          1.64160       -3.53280       -1.19580
C          1.52670       -2.27900       -2.08540
C          0.07840       -1.96060       -1.57270
H          1.19490        1.24610        0.61230
H          0.23550        2.05000       -0.65750
H         -0.49320        1.71800        0.93630
H          0.56090        0.17000       -2.11660
H          2.67380       -0.96690       -0.46820
H          0.47260       -2.62790        0.67620
H          2.64640       -3.80530       -0.85650
H          1.09380       -4.42190       -1.52510
H          1.89590       -2.11250       -3.09840
H         -0.85370       -2.35540       -1.97850
