19
gdb 14784	14.7182	0.53659	0.52448	2.5249	71.8	-0.2597	0.0233	0.2831	2023.0835	0.163712	-402.189518	-402.179458	-402.178514	-402.226475	33.182
O         -0.07540        1.42280        0.01080
C          0.00890        0.00630        0.00210
C         -1.41120       -0.54420        0.01270
C         -1.44930       -2.07460        0.00490
C         -2.87130       -2.61310        0.01580
O         -2.80190       -4.04160        0.00770
C         -3.97770       -4.69460        0.01490
N         -4.00190       -5.95710        0.00900
H          0.81810        1.77790        0.00310
H          0.54120       -0.35780       -0.89180
H          0.55820       -0.36760        0.88170
H         -1.92600       -0.15300        0.89900
H         -1.94270       -0.14370       -0.85940
H         -0.93600       -2.46640       -0.88120
H         -0.91910       -2.47580        0.87670
H         -3.40830       -2.27000        0.91120
H         -3.42530       -2.26070       -0.86560
H         -4.85210       -4.02790        0.02620
H         -4.96610       -6.28350        0.01610
