13
gdb 20663	3.42826	2.31127	1.39229	1.4456	63.34	-0.2584	-0.0761	0.1823	822.3018	0.096876	-394.795936	-394.789226	-394.788282	-394.826895	24.491
C         -0.02680        1.52560        0.00410
C         -0.00710        0.03140       -0.01330
C         -0.04590       -0.73360       -1.13580
N         -0.02830       -2.11300       -1.16590
N          0.02850       -2.75800       -0.06880
N          0.06920       -2.05850        1.07630
C          0.05820       -0.66770        1.26120
O          0.10030       -0.17920        2.37370
H          0.86630        1.91210        0.50680
H         -0.07650        1.93740       -1.00600
H         -0.88270        1.88820        0.58320
H         -0.09510       -0.27990       -2.12100
H          0.11350       -2.63400        1.90890
