15
gdb 3005	7.0961	1.51216	1.39259	3.8854	58.71	-0.2429	-0.0077	0.2352	878.3874	0.123673	-345.649552	-345.64196	-345.641016	-345.681662	26.611
O          0.00940        1.40140        0.00250
C         -0.03740        0.00100       -0.01730
C         -1.48340       -0.47720        0.05080
O         -2.41940        0.28600        0.11150
C         -1.65260       -1.95990        0.03690
C         -2.81480       -2.53360        0.83440
C         -2.89220       -2.51070       -0.65300
H          0.93130        1.66970       -0.04760
H          0.40730       -0.43090       -0.93210
H          0.49950       -0.45890        0.83220
H         -0.74500       -2.55190       -0.01940
H         -2.64990       -3.47870        1.33870
H         -3.41040       -1.80780        1.37600
H         -3.53950       -1.76940       -1.10730
H         -2.78210       -3.43950       -1.20070
