12
gdb 3862	7.70912	2.05439	1.62682	3.0198	52.29	-0.2013	0.0428	0.2441	702.2303	0.092232	-356.711832	-356.70537	-356.704426	-356.741748	24.035
N          0.13490        1.38520        0.21380
C         -0.04030        0.01070        0.05300
C         -1.17910       -0.77200        0.00130
C         -0.67330       -2.09080       -0.07340
O         -1.43140       -3.20470       -0.15390
N          0.64540       -2.15050       -0.07590
N          1.02010       -0.82990       -0.01230
H          0.81550        1.78110       -0.42370
H         -0.73730        1.88880        0.12690
H         -2.20640       -0.45000       -0.00950
H         -0.82170       -3.95200       -0.20130
H          1.98300       -0.60700        0.16700
