17
gdb 19079	2.95411	2.50265	1.70513	1.33	67.85	-0.2171	0.0542	0.2712	805.4182	0.141713	-363.745306	-363.737891	-363.736947	-363.776885	28.623
C         -0.05810        1.61300        0.01380
C          0.05410        0.10630       -0.13220
C          0.62160       -0.82150       -1.15150
C          1.98660       -0.57380       -1.82330
C          2.64330        0.70960       -1.52670
O          2.05030        1.94920       -1.75600
C          2.51080       -0.31160       -0.39970
N          1.20540       -0.74240        0.24180
H          0.87720        2.05880        0.34910
H         -0.34700        2.09960       -0.91840
H         -0.81730        1.83070        0.77130
H         -0.82200       -0.38310        0.29760
H          0.05960       -1.70580       -1.44090
H          2.34700       -1.26920       -2.57160
H          3.68970        0.68060       -1.84690
H          2.50250        2.60410       -1.21300
H          3.40170       -0.68420        0.09300
