19
gdb 15809	5.63789	1.00842	0.92786	1.3933	74.24	-0.2516	0.0309	0.2825	1314.0879	0.164937	-365.063855	-365.055052	-365.054108	-365.098086	31.702
C          0.01090        1.50680       -0.18190
C          0.00570       -0.00010       -0.00420
O          0.66820       -0.57020       -1.14310
C          0.76940       -1.91420       -1.17650
N          0.29680       -2.63230       -0.23830
C          1.48020       -2.33190       -2.42010
C          2.39680       -3.53830       -2.39600
C          1.08750       -3.61870       -3.11740
H          1.03360        1.89020       -0.24170
H         -0.51690        1.79480       -1.09580
H         -0.48660        1.98350        0.66800
H          0.52950       -0.30970        0.90630
H         -1.01000       -0.40440        0.05810
H          0.45570       -3.62230       -0.41610
H          1.77530       -1.50070       -3.04830
H          3.31070       -3.48310       -2.97640
H          2.49610       -4.06130       -1.45080
H          0.28730       -4.19690       -2.66770
H          1.08730       -3.61960       -4.20130
