16
gdb 14213	2.77782	2.521	1.86318	2.4083	64.46	-0.2282	0.0667	0.2949	784.802	0.129727	-383.67019	-383.663111	-383.662167	-383.700991	27.751
C         -0.05110        1.39820       -0.04780
C         -0.02840       -0.09030       -0.01280
O          0.95370       -0.80410       -0.76710
C          0.20340       -2.01590       -0.49060
C          0.44340       -2.25320        1.02220
C         -0.36990       -0.97880        1.23390
C         -1.07590       -1.13550       -0.11220
O         -2.38020       -1.07020       -0.51670
H          0.85870        1.81520        0.39640
H         -0.12990        1.75980       -1.07770
H         -0.91080        1.77410        0.51420
H          0.32000       -2.78700       -1.24910
H         -0.08250       -3.13900        1.39010
H          1.49140       -2.27090        1.33580
H         -0.74410       -0.54010        2.15070
H         -2.89460       -1.71370       -0.01530
