18
gdb 8900	2.76385	1.63874	1.13633	2.4755	65.65	-0.2495	0.0053	0.2548	1090.4022	0.150708	-422.097621	-422.08777	-422.086825	-422.133206	33.108
C         -0.55590        0.91830       -1.11170
O          0.18690        0.10110       -0.22800
C          1.16970       -0.72430       -0.84040
C          2.27170       -0.97490        0.17500
C          0.51130       -2.04240       -1.27550
O          0.57420       -3.08690       -0.68040
O         -0.19490       -1.87320       -2.41410
C         -0.91540       -3.02920       -2.86530
H          0.10510        1.56690       -1.70690
H         -1.17760        0.33320       -1.79950
H         -1.19940        1.54530       -0.48970
H          1.56740       -0.22630       -1.73710
H          3.05780       -1.60140       -0.25490
H          2.70420       -0.02190        0.48800
H          1.86460       -1.49000        1.04740
H         -1.41820       -2.72670       -3.78380
H         -0.22860       -3.85690       -3.05800
H         -1.64380       -3.34550       -2.11450
