18
gdb 14262	3.12535	2.61307	1.8219	0.5618	77.88	-0.2065	-0.0272	0.1793	787.253	0.157772	-310.667633	-310.661457	-310.660513	-310.697439	25.934
C         -0.02970        1.53230       -0.01630
C          1.53180        1.52810        0.00770
C          1.42030        0.10140        0.63290
C         -0.00780       -0.02890        0.01450
C         -0.01280       -0.65490       -1.35370
C          0.78510       -0.31130       -2.37850
C          1.81260        0.72790       -2.38310
C          2.15170        1.53430       -1.36330
H         -0.42690        1.92910        0.92090
H         -0.52140        2.01480       -0.86280
H          1.99990        2.28790        0.63660
H          2.16750       -0.63860        0.34120
H          1.36260        0.16320        1.72220
H         -0.75940       -0.50280        0.64880
H         -0.73000       -1.45530       -1.51590
H          0.66820       -0.85400       -3.31340
H          2.34990        0.84690       -3.32090
H          2.94320        2.25980       -1.53210
