18
gdb 11272	4.97042	1.24987	1.05022	0.7874	84.59	-0.2236	-0.0147	0.2089	1139.1484	0.153491	-310.662474	-310.654359	-310.653415	-310.694799	30.797
C         -0.08150        1.58080       -0.03330
C          0.02710        0.05240        0.01360
C          0.79560       -0.56580       -1.18560
C          1.55260       -1.78840       -0.61840
C          1.62770       -1.48130        0.87140
C          0.79190       -0.48450        1.19980
C          2.45380       -2.22110        1.75100
C          3.17760       -2.87710        2.45740
H          0.91220        2.04180       -0.04990
H         -0.62040        1.90700       -0.92910
H         -0.61840        1.96950        0.83840
H         -0.99670       -0.35420        0.04690
H          0.13830       -0.82230       -2.02050
H          1.51890        0.16950       -1.55620
H          1.00400       -2.72590       -0.77860
H          2.54170       -1.92650       -1.06590
H          0.64380       -0.11720        2.20940
H          3.80770       -3.44740        3.09350
