17
gdb 18514	5.2926	1.15298	1.07141	1.8074	77.21	-0.2278	0.0372	0.265	1155.4175	0.141937	-326.653667	-326.645589	-326.644645	-326.687431	28.915
C          0.04500        1.55150       -0.07830
C          0.03780        0.09740       -0.01290
C          0.03660       -1.10730        0.02780
C          0.03240       -2.55510        0.09600
C          0.26830       -3.24570        1.48000
C         -1.11770       -3.85450        1.30970
C         -2.13900       -2.81650        1.08020
N         -1.31990       -3.24460       -0.06930
H          0.98300        1.92410       -0.50440
H         -0.77300        1.92230       -0.70580
H         -0.06960        1.99900        0.91520
H          0.69590       -2.96810       -0.66830
H          1.07960       -3.97420        1.44060
H          0.41330       -2.59270        2.34420
H         -1.37420       -4.89020        1.50740
H         -3.17210       -3.13770        0.99120
H         -2.00440       -1.81330        1.47760
