13
gdb 10672	2.86845	2.17304	1.36331	2.6196	59.73	-0.2805	-0.0133	0.2672	854.8996	0.09615	-394.801263	-394.793652	-394.792708	-394.83324	27.508
N          0.17370        0.98530       -0.75820
C         -0.02640        0.02510        0.17010
O          0.73500       -0.21540        1.08960
C         -1.29920       -0.79960        0.01980
C         -1.12770       -2.27710        0.25570
N         -1.77790       -1.44930        1.25440
C         -2.30090       -0.31900       -0.89960
N         -3.04040        0.10830       -1.67990
H          0.99190        1.56610       -0.67530
H         -0.50660        1.19070       -1.47100
H         -1.77720       -2.96160       -0.28040
H         -0.10760       -2.60530        0.43030
H         -1.09160       -1.20490        1.97140
