18
gdb 10969	2.70436	2.41201	1.81044	2.8415	71.23	-0.2283	0.0002	0.2285	827.5371	0.154962	-347.820486	-347.813263	-347.812319	-347.851566	28.227
C         -0.02800        1.55020        0.01770
C         -0.00860        0.04350       -0.00880
C          0.70090       -0.80650       -1.12720
C         -0.25320       -1.95820       -0.66520
C          0.24760       -2.21160        0.77350
C          0.42710       -0.72950        1.26020
C         -1.23540       -0.79770       -0.42530
O         -2.38900       -0.57200       -0.64590
H          0.97070        1.95930        0.20600
H         -0.39040        1.95870       -0.93070
H         -0.69180        1.91340        0.80950
H          0.49230       -0.44620       -2.13640
H          1.77140       -0.98360       -0.99100
H         -0.49740       -2.81200       -1.29330
H         -0.47550       -2.76900        1.37460
H          1.18930       -2.76710        0.77880
H          1.46280       -0.50020        1.52870
H         -0.20260       -0.48860        2.12170
