17
gdb 14473	2.88256	2.37237	1.95971	1.9665	67.76	-0.2232	0.0685	0.2917	787.8071	0.141665	-363.799434	-363.791943	-363.790999	-363.830888	28.638
C         -0.11710        1.52600       -0.02570
C          0.06970        0.04980        0.03090
C          0.67690       -0.97420       -0.85210
C          1.39890       -1.66660        0.29950
C          0.32800       -0.98930        1.20110
O          0.58290       -0.62460        2.51300
C         -0.97630       -1.65990        0.73280
N         -0.81680       -0.97460       -0.59230
H          0.79560        2.05100        0.27530
H         -0.37160        1.83180       -1.04520
H         -0.92540        1.85020        0.63880
H          0.97390       -0.90070       -1.89050
H          1.46340       -2.76090        0.31190
H          2.38600       -1.22540        0.46130
H          0.93190       -1.38750        2.98690
H         -1.02810       -2.75530        0.69690
H         -1.86260       -1.25600        1.22850
