15
gdb 13650	5.96089	0.93415	0.85609	0.8257	86.37	-0.2271	-0.0227	0.2043	1309.4541	0.116809	-325.438372	-325.430045	-325.429101	-325.471276	30.265
C         -0.17120        1.42870       -0.20130
N          0.01440       -0.00370        0.00010
C          1.35660       -0.52340       -0.16100
C          0.73870       -0.44800        1.20910
C          1.24490        0.47940        2.17560
C          1.63500        1.24310        3.03270
C          2.08460        2.10200        3.98530
C          2.48260        2.86550        4.83280
H          0.68740        2.03840        0.11620
H         -0.35070        1.60290       -1.26640
H         -1.05260        1.75830        0.35600
H          1.44530       -1.48990       -0.65000
H          2.16170        0.17970       -0.36820
H          0.33340       -1.36350        1.63490
H          2.83480        3.53530        5.57730
