20
gdb 16241	2.70894	2.17976	1.40163	1.7733	74.	-0.252	0.0774	0.3293	950.4471	0.177906	-349.006351	-348.99857	-348.997625	-349.03871	30.281
C         -0.52790        1.38960        0.00290
C          0.09060       -0.00620       -0.02820
C          1.11020       -0.23490       -1.16260
C          1.91780       -1.45770       -0.69600
C          2.11690       -1.19270        0.80750
C          0.85250       -0.44040        1.23770
C          0.75030        0.21810        2.54590
O          0.06500       -1.01100        2.29200
H          0.23580        2.15970        0.15900
H         -1.03430        1.60870       -0.94300
H         -1.27170        1.48170        0.80080
H         -0.71760       -0.74090       -0.14800
H          0.62920       -0.37570       -2.13490
H          1.77060        0.63870       -1.24990
H          1.32730       -2.36950       -0.84430
H          2.85900       -1.58680       -1.23680
H          2.25480       -2.09540        1.40760
H          2.99600       -0.55510        0.96070
H          1.58630        0.15210        3.24330
H          0.11370        1.09100        2.67940
