17
gdb 9175	8.64384	0.8137	0.75067	2.987	74.13	-0.2356	0.0138	0.2495	1509.6544	0.140977	-397.225373	-397.215536	-397.214592	-397.261505	32.578
C         -0.14480        1.30150       -0.62060
N         -0.14530        0.03600        0.08450
C          0.81100       -0.27020        1.01450
O          1.72380        0.47340        1.32450
N          0.64780       -1.53020        1.58760
C          1.50600       -2.03290        2.54940
N          1.32130       -3.18370        3.04430
C          2.26580       -3.63460        4.04570
H         -0.04620        1.15770       -1.70260
H         -1.06060        1.87050       -0.42410
H          0.71120        1.87200       -0.25950
H         -0.87140       -0.62930       -0.12060
H         -0.11330       -2.13710        1.32140
H          2.31200       -1.33800        2.80200
H          1.73560       -3.86320        4.97790
H          2.73860       -4.56710        3.71500
H          3.06010       -2.90490        4.26980
