16
gdb 4843	5.11021	1.30915	1.11628	0.2139	68.35	-0.1711	0.0627	0.2338	1061.0461	0.131271	-379.940044	-379.931832	-379.930888	-379.973028	30.04
C          0.23030        0.99570        0.67590
N         -0.10310        0.13480       -0.46600
C         -1.33220       -0.54680       -0.37340
C         -2.62620       -0.22420       -0.69890
C         -3.45670       -1.35250       -0.39510
C         -2.62630       -2.31740        0.11940
O         -2.83260       -3.57950        0.58140
N         -1.34900       -1.83950        0.13610
H          1.20580        1.46120        0.50300
H         -0.51160        1.78660        0.86540
H          0.30480        0.38420        1.57990
H         -0.06360        0.66740       -1.32600
H         -2.95450        0.71980       -1.10730
H         -4.52420       -1.43470       -0.53030
H         -3.77350       -3.76900        0.51950
H         -0.53110       -2.36860        0.38530
