16
gdb 7125	7.66594	0.9003	0.81396	5.965	66.27	-0.2415	-0.0123	0.2292	1369.9905	0.12865	-417.061632	-417.052369	-417.051425	-417.097149	30.552
C         -0.19790        1.50060        0.01310
O          0.01750        0.10840        0.00300
C         -1.16640       -0.62150        0.01050
C         -0.83390       -2.12210       -0.00140
O          0.28200       -2.56060       -0.01570
N         -2.00090       -2.89190        0.00650
C         -2.14080       -4.27870       -0.00030
N         -1.17580       -5.09810       -0.01330
H          0.78450        1.97710        0.00610
H         -0.76320        1.83370       -0.87180
H         -0.74560        1.82350        0.91280
H         -1.77880       -0.39840        0.90470
H         -1.79630       -0.38830       -0.86880
H         -2.86990       -2.38040        0.01820
H         -3.20520       -4.54920        0.00780
H         -1.53770       -6.05060       -0.01550
