19
gdb 7170	6.30293	0.83489	0.77725	4.668	73.17	-0.2675	0.0342	0.3017	1455.1385	0.163533	-365.074333	-365.064627	-365.063683	-365.109364	33.35
C         -0.02190        1.39130       -0.00320
O         -0.01870       -0.01700       -0.01130
C          0.64810       -0.56160       -1.12440
C          0.56020       -2.08720       -1.04810
C         -0.89170       -2.57360       -1.07860
C          1.40160       -2.69400       -2.19510
C          1.48760       -4.15090       -2.12890
N          1.55140       -5.30290       -2.06310
H          0.99980        1.80130        0.02710
H         -0.53090        1.80330       -0.88870
H         -0.55760        1.71100        0.89350
H          0.19010       -0.20220       -2.06450
H          1.70420       -0.23830       -1.13530
H          1.01570       -2.39090       -0.09800
H         -0.94630       -3.66050       -0.97240
H         -1.45720       -2.11320       -0.26640
H         -1.37480       -2.30100       -2.02500
H          0.97020       -2.41810       -3.16570
H          2.42110       -2.29090       -2.17620
