17
gdb 10512	2.75684	1.91435	1.3809	3.4742	64.66	-0.2493	-0.0379	0.2113	930.416	0.141407	-400.977205	-400.969042	-400.968098	-401.009977	29.807
O          0.45090        1.04090        0.44140
C          0.09920       -0.07510       -0.34840
C         -1.35780       -0.50600       -0.15510
C         -2.38950        0.03380       -1.12860
C         -2.51020        1.53610       -1.21890
O         -1.76450        2.34660       -0.72060
C         -1.61080       -1.82760        0.48580
N         -1.83690       -0.58420        1.23310
H         -0.17150        1.74500        0.20090
H          0.28950        0.10460       -1.41940
H          0.76670       -0.88480       -0.03590
H         -2.19680       -0.32110       -2.15400
H         -3.38580       -0.34930       -0.87270
H         -3.37630        1.88470       -1.82280
H         -2.51130       -2.38970        0.24920
H         -0.74890       -2.44380        0.72850
H         -1.05680       -0.37670        1.85360
