19
gdb 17274	5.07541	1.06058	0.98443	2.1093	71.95	-0.2302	0.0857	0.3159	1230.8049	0.164359	-365.003957	-364.995467	-364.994523	-365.037661	30.731
C         -0.09310        1.44160       -0.36630
C          0.26690       -0.00650       -0.11450
C          1.66220       -0.41560        0.21830
N          0.59810       -0.53200        1.21120
C          0.63290        0.35760        2.36410
C          1.27280       -0.36270        3.53010
C          2.67750       -0.15180        3.89890
O          1.62100        0.44800        4.65200
H          0.56680        2.13590        0.15930
H         -0.01880        1.66090       -1.43660
H         -1.12340        1.65270       -0.05860
H         -0.33190       -0.70860       -0.69410
H          2.08140       -1.34810       -0.15070
H          2.38890        0.38710        0.34660
H          1.17470        1.30220        2.19670
H         -0.39950        0.61630        2.63090
H          0.81410       -1.31920        3.78140
H          3.22950       -0.93840        4.41130
H          3.28720        0.54090        3.31940
