13
gdb 17017	5.84726	1.33875	1.25036	1.9756	60.86	-0.2515	-0.0359	0.2156	925.101	0.095327	-398.54086	-398.534186	-398.533242	-398.572164	24.197
O         -0.02100       -0.05140       -0.19320
C         -0.00990        1.12900        0.05690
C          1.26630        1.93300        0.04340
C          1.21920        3.34710       -0.62720
N          0.38100        3.79170        0.56820
C          1.48530        2.95540        1.20880
C          2.44930        3.70280        0.24940
O          3.44590        4.34890        0.24270
H         -0.93180        1.68310        0.30860
H          2.11280        1.29560       -0.21530
H          0.95180        3.60030       -1.65100
H          0.51200        4.78770        0.76170
H          1.52160        2.76190        2.27880
