11
gdb 21431	3.29504	2.59782	1.45259	2.9771	57.28	-0.2737	-0.064	0.2098	763.8764	0.072266	-430.679574	-430.67316	-430.672215	-430.71098	22.968
N         -0.01160        1.24310        0.42230
C         -0.02290        0.05000        0.03320
O          1.13240       -0.56750       -0.42520
C          1.07180       -1.85360       -0.83400
N          0.06820       -2.62970       -0.86650
O         -1.15090       -2.09060       -0.41960
C         -1.25710       -0.79240        0.02980
N         -2.36190       -0.33510        0.42430
H          0.92660        1.64090        0.34520
H          2.02710       -2.23580       -1.17100
H         -3.09020       -1.04910        0.35120
