16
gdb 18809	3.12456	3.02368	2.38774	2.2208	62.4	-0.2271	0.0699	0.297	667.8612	0.133496	-383.693531	-383.688145	-383.687201	-383.722652	22.862
C         -0.00500        1.52950        0.20360
C          1.52840        1.41140       -0.03170
O          2.21950        1.15270        1.17550
C          1.58880        0.11220        1.92480
C          0.86440       -0.80660        0.95160
O          1.81150       -1.08020       -0.12370
C          1.25540        0.04360       -0.80880
C         -0.06810        0.00800       -0.01990
H         -0.32810        1.95670        1.15640
H         -0.50190        2.06080       -0.61360
H          2.05870        2.21760       -0.53890
H          2.38160       -0.42870        2.45070
H          0.89390        0.52480        2.67270
H          0.47300       -1.71740        1.41120
H          1.37700        0.02260       -1.89300
H         -0.97410       -0.49800       -0.35260
