15
gdb 10551	3.05805	1.53752	1.14441	4.7325	62.94	-0.2764	0.003	0.2794	1045.7883	0.116718	-399.766916	-399.758494	-399.75755	-399.800449	28.841
C         -0.01210        1.34610       -0.12480
O         -0.04140       -0.06260       -0.19940
C         -1.29080       -0.60490        0.13100
C         -1.17680       -2.11220        0.09980
C         -2.34930       -2.94730       -0.22980
O         -1.30970       -2.73910       -1.17780
C         -0.14650       -2.67800        0.95640
N          0.65100       -3.12530        1.66240
H          1.00010        1.66030       -0.38590
H         -0.72270        1.80460       -0.82940
H         -0.24850        1.70280        0.88950
H         -1.61110       -0.28410        1.13730
H         -2.06980       -0.30250       -0.58730
H         -2.41860       -3.94960        0.18670
H         -3.29540       -2.45450       -0.44880
