13
gdb 3685	7.25846	2.1488	1.67799	2.2278	55.81	-0.2076	0.0262	0.2339	716.5243	0.104136	-336.855265	-336.848528	-336.847584	-336.886426	24.04
C          0.01640        1.47040        0.02930
C          0.00930       -0.01830       -0.04960
N          0.16780       -0.75050       -1.14190
C          0.08770       -2.02910       -0.66960
N          0.26620       -3.11960       -1.49850
N         -0.11660       -2.14300        0.63630
N         -0.15790       -0.82810        1.01120
H          0.99510        1.86680       -0.25810
H         -0.72270        1.89180       -0.65760
H         -0.21230        1.81710        1.04060
H          0.00880       -2.93010       -2.45590
H         -0.14490       -3.97000       -1.14200
H         -0.30260       -0.59030        1.97770
