18
gdb 19296	3.34805	1.81226	1.42656	2.6927	67.75	-0.2421	0.0796	0.3217	932.8812	0.152261	-384.886451	-384.878284	-384.877339	-384.919007	29.833
C         -0.06340        1.38890       -0.01850
O          0.25680        0.02130        0.12440
C          0.70170       -0.58260       -1.05390
C          1.32990       -1.96160       -0.87330
O          0.30860       -2.87930       -0.47000
C          0.40710       -2.55480       -1.85850
C         -0.34990       -1.23140       -2.06320
C         -1.82030       -1.22590       -1.67150
H          0.80680        1.97360       -0.35590
H         -0.88520        1.55330       -0.72980
H         -0.37290        1.75180        0.96440
H          1.38700        0.08220       -1.60190
H          2.35100       -2.21170       -0.60940
H          0.56740       -3.37120       -2.55320
H         -0.20120       -0.83370       -3.07200
H         -1.94170       -1.60050       -0.65350
H         -2.24310       -0.21760       -1.72030
H         -2.40270       -1.86160       -2.34760
