12
gdb 21537	3.57171	1.98036	1.27556	2.7811	65.09	-0.2235	-0.0338	0.1897	861.4528	0.086755	-373.732636	-373.725747	-373.724803	-373.763669	25.283
N          0.03410        1.43530        0.16480
C          0.01640        0.05650        0.04670
C         -1.09840       -0.78210        0.01960
N         -0.60380       -2.06620       -0.02520
N          0.72220       -2.10560       -0.03560
C          1.11550       -0.83270        0.00960
C         -2.46900       -0.46890        0.02500
N         -3.59500       -0.18770        0.02300
H          0.84190        1.88240       -0.24320
H         -0.82200        1.89600       -0.11060
H         -1.13480       -2.92040       -0.05430
H          2.16740       -0.58950        0.01660
