16
gdb 2698	15.52552	0.89099	0.86078	3.938	62.8	-0.2722	0.0335	0.3056	1289.9834	0.13541	-325.789398	-325.781	-325.780056	-325.822834	27.958
C         -0.10680        1.51860        0.01200
C         -0.01470        0.00290        0.00230
O         -1.32920       -0.52780        0.01190
C         -1.36230       -1.93130        0.00420
C         -2.84110       -2.33920        0.01610
C         -3.01270       -3.78830        0.00940
N         -3.12940       -4.93770        0.00390
H          0.89450        1.95900        0.00490
H         -0.64990        1.87610       -0.86730
H         -0.63300        1.86580        0.90550
H          0.52620       -0.34920       -0.89150
H          0.54320       -0.35940        0.88150
H         -0.86570       -2.33960       -0.89050
H         -0.84860       -2.34980        0.88440
H         -3.32500       -1.91950        0.90410
H         -3.34200       -1.90940       -0.85760
