17
gdb 15623	3.41438	1.76732	1.27292	3.7292	71.48	-0.2408	-0.0184	0.2224	976.6147	0.143123	-363.923138	-363.915138	-363.914194	-363.955845	29.05
C         -0.23140        1.51500       -0.06490
C          0.09960        0.01470        0.03340
C          0.79710       -0.49980       -1.18520
C          2.04630       -0.94580       -1.34840
C          2.29070       -1.35860       -2.77700
N          1.01370       -1.08200       -3.39100
C          0.08640       -0.58260       -2.50680
O         -1.06440       -0.28040       -2.75600
H          0.68050        2.11300       -0.16150
H         -0.86320        1.70440       -0.93570
H         -0.76490        1.85000        0.82960
H          0.71200       -0.18270        0.91990
H         -0.83810       -0.54110        0.15520
H          2.81500       -1.02330       -0.58950
H          3.10740       -0.78030       -3.23400
H          2.56740       -2.42090       -2.85070
H          0.79170       -1.25270       -4.35660
