18
gdb 4167	2.96242	1.54009	1.17212	1.726	71.3	-0.2318	-0.0001	0.2316	1067.8567	0.153374	-381.056749	-381.047984	-381.04704	-381.090466	31.662
C         -0.48330        1.66730        0.00980
C         -0.05470        0.18850        0.05950
C         -1.23270       -0.75060       -0.01340
N         -1.82260       -1.10160       -1.09310
O         -1.27070       -0.48990       -2.22940
C         -1.79730       -1.30100        1.25130
C         -3.17640       -0.89910        1.67380
N         -2.90130       -2.26230        1.21670
H          0.39150        2.32110        0.07300
H         -1.00560        1.88040       -0.92570
H         -1.15080        1.91440        0.84100
H          0.61260       -0.02270       -0.78090
H          0.49920       -0.00550        0.98390
H         -1.77470       -0.89430       -2.94320
H         -1.05870       -1.48770        2.02800
H         -3.40920       -0.80040        2.73080
H         -3.71470       -0.22510        1.01270
H         -3.19050       -2.35980        0.24460
