22
gdb 17374	3.66915	1.49858	1.22986	0.2251	81.34	-0.2485	0.0847	0.3332	1084.8728	0.200431	-313.048782	-313.04031	-313.039366	-313.081403	32.926
C          0.02560        1.51880       -0.06050
C          0.07220       -0.00870        0.08250
C          0.74960       -0.42320        1.39550
C         -1.33240       -0.60930       -0.01890
C         -2.11630       -0.53440       -1.37850
C         -2.30700       -2.05550       -1.33350
C         -0.97220       -2.74150       -1.31000
C         -1.50160       -2.13930       -0.03540
H          1.03140        1.95110       -0.03290
H         -0.44240        1.82140       -1.00300
H         -0.55110        1.96970        0.75650
H          0.67440       -0.40580       -0.74680
H          0.18960       -0.04720        2.26080
H          0.81050       -1.51240        1.48470
H          1.76700       -0.02320        1.46180
H         -1.95270       -0.18040        0.77750
H         -3.04720        0.03090       -1.29730
H         -1.55700       -0.15720       -2.24250
H         -3.21510       -2.58130       -1.60220
H         -1.00420       -3.82580       -1.34850
H         -0.12040       -2.30800       -1.82920
H         -1.68850       -2.75400        0.83730
