15
gdb 15292	5.77892	0.97005	0.88289	1.3795	67.54	-0.2644	-0.0378	0.2266	1229.5118	0.117993	-362.673262	-362.665267	-362.664323	-362.706514	28.023
O         -0.15840        0.11990       -0.60670
C         -0.04130        1.20950       -0.10480
C          1.24750        1.92780        0.03380
C          1.24520        3.45270       -0.01540
C          1.57270        2.77010        1.26670
C          0.63930        2.83840        2.46960
C          0.93810        3.99790        3.31220
N          1.18840        4.91490        3.96870
H         -0.93340        1.76060        0.27530
H          2.08180        1.40490       -0.42060
H          2.03360        3.93670       -0.57900
H          0.27490        3.93390       -0.09700
H          2.62190        2.74450        1.54360
H         -0.40810        2.90330        2.15890
H          0.73080        1.93270        3.08040
