13
gdb 643	8.1915	3.01004	2.71509	1.9279	49.82	-0.2449	0.0588	0.3037	513.7183	0.108945	-286.43116	-286.425701	-286.424756	-286.460065	19.776
C          0.05530        1.53390       -0.00320
N          1.26030        0.67530        0.04500
C         -0.05630        0.06370        0.00810
C         -0.60430       -0.90640        1.04850
O         -1.18330       -1.72030        0.00020
C         -0.64920       -0.87570       -1.03980
H         -0.13190        2.10590        0.90190
H         -0.18230        2.05670       -0.92700
H          1.70130        0.62980       -0.87110
H          0.16160       -1.44480        1.62010
H         -1.36720       -0.51440        1.73210
H         -1.43600       -0.46070       -1.68300
H          0.08580       -1.40320       -1.66480
