12
gdb 5490	3.68845	2.04773	1.31672	1.7903	58.04	-0.2309	-0.043	0.1879	834.8714	0.085338	-414.716503	-414.709986	-414.709041	-414.747276	23.881
O          0.11520        1.31040        0.16440
C          0.07850       -0.01850        0.00520
N          0.07890       -0.67710       -1.10840
C          0.03220       -2.02070       -0.71920
C          0.00400       -2.14590        0.62890
N          0.03430       -0.83080        1.12390
C          0.02210       -0.43100        2.46020
O         -0.01590       -1.20500        3.37890
H          0.14240        1.69170       -0.72340
H          0.02220       -2.80520       -1.45910
H         -0.03310       -2.98050        1.30560
H          0.05430        0.66500        2.56230
