14
gdb 14510	4.32343	1.86649	1.51758	1.3176	58.72	-0.2512	-0.0468	0.2044	809.0377	0.105955	-419.609318	-419.602682	-419.601737	-419.639994	25.674
O          0.06140        1.44800       -0.02760
C          0.01330        0.06960       -0.00320
C          0.98660       -0.52080       -0.99260
O          1.67530        0.20740       -1.67300
C         -0.10430       -0.67580        1.37930
C         -1.53080       -0.10200        1.54680
C         -1.38130       -0.65380        0.10960
O         -0.67290       -1.83010        0.65400
H          0.73120        1.66770       -0.69810
H          1.03370       -1.61790       -1.05880
H          0.66800       -0.87420        2.12270
H         -2.18380       -0.68910        2.19340
H         -1.63600        0.97520        1.67120
H         -2.13240       -0.82600       -0.66150
