18
gdb 19046	4.119	2.02766	1.81649	0.9446	78.22	-0.2067	-0.028	0.1787	810.916	0.154623	-310.568686	-310.562142	-310.561197	-310.598917	26.993
C          0.05010        1.56720       -0.11920
C         -0.00890        0.04010       -0.00510
C          0.81480       -0.62170       -1.11510
C          1.55320       -1.62640       -0.60490
C          2.98140       -1.27470       -0.16820
C          2.25190       -1.01750        1.20480
C          0.72760       -0.56960        1.20900
C          1.13110       -1.94880        0.84270
H          1.08570        1.91600       -0.19140
H         -0.49190        1.92200       -1.00190
H         -0.40050        2.03460        0.76270
H         -1.06560       -0.26310        0.04790
H          1.16720       -0.01250       -1.94470
H          3.68140       -2.10910       -0.04100
H          3.47040       -0.44800       -0.69180
H          2.77650       -0.98980        2.15730
H          0.36840       -0.35420        2.21530
H          0.84150       -2.90210        1.26460
