18
gdb 17861	4.40375	1.69157	1.51992	1.7358	72.45	-0.2518	0.101	0.3528	904.8825	0.153988	-347.734813	-347.727758	-347.726814	-347.765794	27.868
C          0.00490        1.54390       -0.12290
C         -0.03390        0.04850        0.05330
O          1.24390       -0.64680       -0.05830
C          0.57900       -0.63990        1.17910
C          1.15410       -0.24440        2.54980
C         -0.17900       -0.80080        3.14000
C          0.24320       -1.84990        2.06500
C          1.69850       -1.70890        2.61900
H          0.82020        1.98340        0.45730
H          0.15160        1.80520       -1.17610
H         -0.93940        1.99220        0.20540
H         -0.83910       -0.46240       -0.47800
H          1.67390        0.67210        2.82720
H         -0.12760       -1.14260        4.17620
H         -1.08920       -0.22700        2.94770
H         -0.27850       -2.76470        1.78520
H          2.51080       -1.96320        1.93600
H          1.86780       -2.10700        3.62290
