18
gdb 13240	7.52827	0.86012	0.8156	4.3222	73.43	-0.2411	0.0243	0.2654	1380.3558	0.154808	-343.974262	-343.966042	-343.965097	-344.007761	29.578
N         -0.19910       -1.09440       -0.21570
C         -0.11920        0.04520       -0.04610
C         -0.00680        1.48610        0.19830
N          1.24790        2.01290       -0.32760
C          1.41070        3.43480       -0.10940
C          1.65620        4.04640        1.31210
C          2.66220        5.02580        0.64890
C          2.74690        4.06360       -0.56730
H         -0.83840        1.98780       -0.31270
H         -0.15710        1.65670        1.27940
H          2.02810        1.50500        0.07860
H          0.56620        3.94460       -0.58950
H          0.80660        4.46830        1.85470
H          2.16730        3.32670        1.96140
H          2.18830        5.97440        0.38260
H          3.58690        5.24040        1.18740
H          3.56920        3.34870       -0.45380
H          2.79250        4.48670       -1.57270
