14
gdb 11650	3.35812	1.89759	1.507	3.6252	63.57	-0.2646	0.0034	0.268	837.0143	0.108352	-378.656894	-378.650138	-378.649194	-378.687759	25.778
O          0.17530        1.44720        0.09140
C          0.05170        0.06320        0.03620
C         -0.08690       -0.68490        1.38330
C         -1.52470       -0.11940        1.52700
C         -1.36910       -0.63090        0.06740
N         -0.71070       -1.86510        0.65080
C         -2.35000       -0.68420       -0.98650
N         -3.11200       -0.69050       -1.85640
H          0.14350        1.80100       -0.80370
H          0.74200       -0.40090       -0.68220
H          0.66520       -0.82620        2.15710
H         -2.20070       -0.70910        2.14450
H         -1.62230        0.95610        1.65410
H         -0.04050       -2.24670       -0.02750
