12
gdb 19492	3.82339	2.0856	1.92838	4.3502	57.61	-0.2686	-0.0118	0.2568	712.3769	0.085793	-377.522049	-377.516079	-377.515135	-377.552313	22.13
N         -0.00990       -1.16750        0.00390
C          0.01480       -0.01130        0.01490
C          0.04000        1.42120        0.04120
C          0.49770        2.18460        1.27400
O          1.24500        1.45570        2.22190
C          2.38270        1.08460        1.56940
N          2.55180        1.47860        0.37160
C          1.36010        2.21090        0.03260
H         -0.77130        1.90060       -0.49670
H         -0.10340        2.97310        1.70590
H          3.06170        0.47360        2.14910
H          1.45790        3.03610       -0.66080
