13
gdb 938	6.06085	2.64818	1.86411	2.4107	60.93	-0.2484	-0.0362	0.2122	657.9913	0.104172	-303.56035	-303.554385	-303.553441	-303.590692	21.248
C         -0.03950        1.50470       -0.00030
C         -0.01720        0.00200        0.03050
N         -0.25400       -0.63240       -1.12780
C         -0.23360       -1.96300       -1.09740
N         -0.00370       -2.74890       -0.04330
C          0.23060       -2.10610        1.10320
C          0.23560       -0.72060        1.19670
H          0.16290        1.93480        0.98320
H          0.70540        1.87700       -0.71060
H         -1.01470        1.85890       -0.34880
H         -0.42680       -2.46840       -2.04130
H          0.42100       -2.72520        1.97750
H          0.42860       -0.22130        2.13930
