13
gdb 17425	3.12342	2.7922	1.88074	2.9641	56.98	-0.2525	-0.003	0.2495	700.8529	0.09551	-398.551631	-398.545399	-398.544455	-398.581763	24.243
O          0.21880        1.43080       -0.28600
C          0.07160        0.08160       -0.16000
C          0.52730       -0.86930       -1.28690
C         -0.45350       -1.87980       -0.68140
C         -1.24830       -0.85510       -0.00450
N         -0.39320       -1.81590        0.82670
C          0.45310       -0.66460        1.10370
O          0.99630       -0.34460        2.11740
H          0.34120        1.80340        0.59750
H          0.17470       -0.52810       -2.26310
H          1.59280       -1.11590       -1.33030
H         -0.76310       -2.83580       -1.08110
H         -2.28890       -0.68540        0.22780
