20
gdb 15436	4.31239	1.03002	0.91837	1.6842	73.57	-0.2333	0.0862	0.3195	1348.8127	0.174313	-386.0989	-386.089391	-386.088447	-386.133766	33.394
C         -0.09550        1.48230        0.09530
C         -0.29690        0.02260        0.46330
O         -1.03560       -0.59970       -0.57650
C         -1.25860       -1.94860       -0.35870
C         -2.41580       -2.38220        0.52700
C         -2.47170       -2.55890       -0.98130
O         -3.29160       -1.73170       -1.73210
C         -4.63480       -2.16850       -1.75710
H          0.47210        1.99740        0.87600
H          0.45170        1.56830       -0.84780
H         -1.06010        1.98380       -0.02310
H          0.67450       -0.48370        0.59060
H         -0.83770       -0.07140        1.41800
H         -0.35340       -2.55940       -0.33400
H         -2.31230       -3.24730        1.17290
H         -3.02360       -1.57310        0.91810
H         -2.37360       -3.57400       -1.37260
H         -5.19130       -1.45890       -2.37360
H         -4.72730       -3.17310       -2.19840
H         -5.07280       -2.19340       -0.74870
