18
gdb 7511	4.79992	1.17167	1.10444	1.4502	73.53	-0.2549	0.0522	0.3071	1114.0697	0.15088	-347.754549	-347.745491	-347.744547	-347.787827	33.808
C         -0.07740        1.68080        0.29300
C         -0.07060        0.17760        0.10820
C         -1.38910       -0.41640       -0.39040
C         -1.74580        0.01770       -1.73870
C         -2.02360        0.38390       -2.84950
C          1.21020       -0.49060       -0.35670
C          0.72610       -0.66930        1.06380
O          1.38080       -0.01670        2.11290
H          0.86960        2.02700        0.70960
H         -0.25180        2.18420       -0.66290
H         -0.87330        1.98390        0.98350
H         -1.33090       -1.51210       -0.37170
H         -2.19480       -0.14240        0.30470
H         -2.27630        0.70240       -3.83020
H          1.14890       -1.32980       -1.04210
H          2.07330        0.15120       -0.50110
H          0.30750       -1.64080        1.33160
H          2.24440       -0.42750        2.22380
