11
gdb 3026	16.63095	1.03593	1.02913	1.6841	69.92	-0.2483	-0.0324	0.2159	1065.9116	0.076513	-306.032266	-306.025433	-306.024488	-306.063177	24.009
C          0.04290       -3.76110       -0.05530
C          0.03800       -2.55400       -0.02310
C          0.03160       -1.19510        0.01230
C          0.03100        0.01490        0.05270
C         -0.00660        1.44850        0.07210
C          0.51920        2.22260        1.21710
O          1.24830        2.14610        0.00120
H          0.04840       -4.82260       -0.08340
H         -0.79750        1.90150       -0.52490
H          0.07370        3.19020        1.44410
H          0.95060        1.68670        2.06000
