16
gdb 14456	3.49432	2.33494	1.97775	1.4223	63.54	-0.2326	0.0778	0.3104	746.1008	0.130805	-383.678074	-383.671675	-383.670731	-383.708299	25.457
C          0.05230        1.48670       -0.11420
C         -0.00760       -0.00130        0.01140
O          0.55440       -0.83700       -1.06300
C          0.06610       -1.80730       -0.08290
C          0.59240       -0.95230        1.10760
C         -0.43400       -1.05240        2.22260
O         -1.67180       -1.05640        1.47120
C         -1.22540       -0.97360        0.14220
H          1.08910        1.83630       -0.14150
H         -0.44740        1.81290       -1.03150
H         -0.45130        1.95570        0.73700
H          0.20280       -2.86730       -0.29260
H          1.65740       -0.92170        1.33040
H         -0.35630       -1.97470        2.81050
H         -0.42060       -0.19710        2.90880
H         -2.04340       -0.97030       -0.57520
