16
gdb 9597	3.90339	1.19551	1.18188	2.8753	68.47	-0.2611	-0.0481	0.213	1065.269	0.127793	-383.753749	-383.745346	-383.744402	-383.786831	29.855
C         -0.11120        1.58020       -0.03820
C         -0.04590        0.07020        0.05220
C          1.24370       -0.67690       -0.17510
C          0.66810       -0.66030        1.21640
C          1.33820        0.12000        2.28680
O          1.29710       -0.17390        3.45480
C         -1.27600       -0.64450       -0.39880
O         -2.26420       -0.09620       -0.81440
H          0.84990        2.04710        0.18600
H         -0.40640        1.87130       -1.04970
H         -0.86150        1.98190        0.64830
H          1.22270       -1.61970       -0.71150
H          2.12350       -0.07030       -0.36400
H          0.19240       -1.56620        1.57920
H          1.91280        1.00550        1.93550
H         -1.21380       -1.75560       -0.32760
