11
gdb 23688	3.88138	2.03261	1.33401	3.6891	58.06	-0.2428	-0.0678	0.1751	807.0827	0.072302	-438.709267	-438.703154	-438.702209	-438.739902	22.581
F          0.11200        0.07510        0.00220
C         -0.04360        1.37440        0.01090
C         -1.24310        1.99090        0.03060
C         -1.16930        3.41970        0.03670
N         -0.07460        4.11310        0.02490
C          1.13340        3.46810        0.00460
N          2.25880        4.02980       -0.00760
O          1.10770        2.00120       -0.00220
H         -2.16970        1.43960        0.04080
H         -2.09920        3.98650        0.05260
H          3.01560        3.34940       -0.02150
