13
gdb 21061	5.766	1.70128	1.32467	3.4473	68.46	-0.2394	-0.0699	0.1695	870.11	0.096296	-390.905004	-390.89798	-390.897036	-390.937067	24.686
C         -0.05800        1.41410        0.00950
N         -0.02770       -0.03960        0.00110
N         -1.22090       -0.67660        0.00550
C         -1.16160       -1.96570       -0.00150
C          0.09520       -2.69580       -0.01290
N          0.12970       -3.97210       -0.02190
N          1.27010       -1.89200       -0.01520
N          1.17750       -0.62860       -0.00820
H          0.97360        1.76200        0.00280
H         -0.58580        1.78160       -0.87420
H         -0.57080        1.77180        0.90610
H         -2.10180       -2.50820        0.00170
H          1.10540       -4.28070       -0.02970
