14
gdb 18922	3.54949	2.67575	2.05976	3.4142	59.84	-0.2296	-0.0202	0.2094	679.2649	0.10902	-382.500609	-382.495159	-382.494214	-382.530018	22.206
O          0.00740        0.09830        0.09580
C         -0.02470        1.29180        0.02450
C         -1.18920        2.28530       -0.04560
C         -0.95660        2.98130        1.33750
C          0.32440        3.53550        0.67730
C         -0.34740        3.45800       -0.71170
O          0.81910        2.89190       -1.34250
C          1.09890        2.34650       -0.01180
H         -2.15990        1.93990       -0.38780
H         -1.67720        3.78140        1.52370
H         -0.88030        2.33990        2.21950
H          0.89660        4.38480        1.04460
H         -0.84360        4.25520       -1.26190
H          2.13510        2.06880        0.16330
