18
gdb 7108	7.25894	0.85731	0.77774	4.8956	72.47	-0.2385	-0.0098	0.2287	1464.6879	0.152733	-381.157322	-381.147833	-381.146889	-381.19323	32.268
C         -0.16330        1.67450        0.01370
C          0.02170        0.15560        0.00390
C         -1.30770       -0.59840        0.01150
C         -1.12620       -2.11750        0.00060
O         -0.05120       -2.66130       -0.01540
N         -2.34750       -2.79930        0.01090
C         -2.59600       -4.16990        0.00520
N         -1.70130       -5.06630       -0.00840
H          0.80300        2.18750        0.00790
H         -0.72500        2.01600       -0.86330
H         -0.70940        2.00650        0.90420
H          0.59770       -0.15140       -0.87500
H          0.61310       -0.16080        0.86910
H         -1.90170       -0.32320        0.89480
H         -1.91750       -0.31290       -0.85770
H         -3.17160       -2.21930        0.02350
H         -3.67880       -4.35480        0.01470
H         -2.14190       -5.98510       -0.00950
