20
gdb 9289	4.20399	0.86894	0.75901	3.4584	73.64	-0.2451	-0.015	0.2301	1500.6811	0.173562	-386.146619	-386.136541	-386.135597	-386.182657	34.405
C          0.11220        1.37070        0.16240
O         -0.00360       -0.02030       -0.02980
C          0.63790       -0.52340       -1.19580
C          2.15430       -0.62550       -1.01300
C          0.00800       -1.88950       -1.48190
C         -1.50340       -1.80530       -1.74840
C         -2.14800       -3.16810       -1.80070
O         -2.81860       -3.58740       -2.70900
H          1.14600        1.68670        0.36310
H         -0.25660        1.93320       -0.70950
H         -0.50050        1.62660        1.03050
H          0.42160        0.15270       -2.04150
H          2.62420       -1.02280       -1.91820
H          2.60150        0.35170       -0.81040
H          2.39170       -1.29080       -0.17690
H          0.51750       -2.34280       -2.33950
H          0.19640       -2.53880       -0.61700
H         -1.95800       -1.24980       -0.91740
H         -1.72400       -1.27620       -2.68030
H         -1.95370       -3.79620       -0.89810
