20
gdb 6018	2.63218	1.72298	1.37302	1.1489	76.45	-0.2622	0.0366	0.2988	1022.1972	0.173054	-348.977724	-348.967724	-348.96678	-349.011409	37.659
C         -0.01290        1.56470       -0.04700
C          0.02060        0.02960       -0.02560
C          0.65300       -0.50750       -1.31710
C          0.75360       -0.50590        1.24830
C          0.84870       -2.03900        1.26690
O          2.11080       -0.04370        1.28310
C          0.03970       -0.05510        2.45580
C         -0.53190        0.32000        3.44540
H          0.99490        1.97720       -0.17340
H         -0.61410        1.92120       -0.88860
H         -0.44230        1.97340        0.87190
H         -1.01360       -0.33210        0.04180
H          1.72610       -0.29400       -1.33300
H          0.51740       -1.58600       -1.43040
H          0.19740       -0.02610       -2.18800
H          1.50600       -2.37940        0.46460
H          1.26770       -2.36960        2.21930
H         -0.13870       -2.49040        1.14020
H          2.09950        0.88500        1.53700
H         -1.03480        0.64580        4.32250
