15
gdb 18749	3.12343	2.36233	1.63308	2.5346	61.52	-0.2675	0.0099	0.2774	789.4968	0.119684	-399.776967	-399.77021	-399.769266	-399.807971	25.983
O          0.21770        1.24940       -0.53850
C          0.03720       -0.03110       -0.01460
C          0.07650       -0.26630        1.54010
C         -1.30860       -0.93930        1.46270
O         -2.37950        0.03470        1.70510
C         -2.44290        0.34510        0.36310
N         -3.09730        1.23240       -0.24100
C         -1.39600       -0.65600       -0.06160
H         -0.61420        1.73500       -0.46260
H          0.75710       -0.68340       -0.51640
H          0.88690       -0.92390        1.86180
H          0.08280        0.64040        2.14810
H         -1.51080       -1.88940        1.95240
H         -3.68130        1.76890        0.40380
H         -1.65240       -1.36450       -0.84570
