16
gdb 11925	3.20074	1.86887	1.51738	2.1709	72.95	-0.226	0.0162	0.2422	891.5183	0.1284	-346.530302	-346.522495	-346.521551	-346.562079	29.65
C         -0.03390        1.56070        0.01820
C          0.01490        0.06320        0.00040
C         -0.88390       -0.83020        0.82330
C          0.61120       -0.94130        0.99270
O          1.15060       -1.75770       -0.05900
C          0.70300       -0.79910       -1.05430
C          1.32820       -0.78500        2.20750
C          1.93360       -0.64480        3.23810
H          0.92740        1.99360       -0.27840
H         -0.80090        1.94060       -0.66730
H         -0.27330        1.93120        1.01970
H         -1.40730       -0.32890        1.63100
H         -1.40920       -1.66920        0.37420
H          0.07480       -1.26180       -1.82470
H          1.56220       -0.30430       -1.52280
H          2.46960       -0.52730        4.14720
