16
gdb 19744	5.02122	2.09	2.0895	1.2304	68.06	-0.2222	0.0111	0.2334	712.5337	0.133523	-346.570484	-346.56511	-346.564166	-346.599531	23.113
C          0.00270        1.49590       -0.02050
O          1.42230        1.78270       -0.03730
C          1.97480        0.49050        0.00870
C          1.15190       -0.42220       -0.98620
C          1.55610       -1.82120       -0.57270
C          1.56180       -1.77110        0.76490
C          1.16070       -0.34500        1.07600
C          0.01840       -0.02360        0.03630
H         -0.45850        1.96530        0.85630
H         -0.46610        1.89860       -0.92610
H          3.06470        0.52630        0.00270
H          1.07430       -0.16280       -2.04240
H          1.81510       -2.63270       -1.23740
H          1.82670       -2.53080        1.48620
H          1.09190       -0.00730        2.11050
H         -0.93340       -0.55620        0.06030
