24
gdb 6540	2.57342	1.77311	1.54837	0.1178	84.12	-0.262	0.0775	0.3395	1029.1931	0.221507	-314.268767	-314.259018	-314.258074	-314.302225	38.391
C          0.07620        1.54070        0.17600
C          0.00410        0.01010        0.00320
C          0.64080       -0.64070        1.24970
C         -1.48850       -0.37690       -0.06770
C          0.74350       -0.48590       -1.26710
C          0.51520       -1.94690       -1.63610
C          0.96090        0.43490       -2.44810
C          2.12790        0.03910       -1.57460
H          1.10370        1.91610        0.18350
H         -0.47480        2.06780       -0.60830
H         -0.37600        1.82100        1.13300
H          0.11820       -0.32430        2.15900
H          0.59520       -1.73300        1.21100
H          1.69240       -0.35300        1.34910
H         -1.95100        0.00550       -0.98410
H         -1.63480       -1.46020       -0.04190
H         -2.03210        0.04710        0.78350
H         -0.52340       -2.13880       -1.92320
H          1.14370       -2.22600       -2.48740
H          0.76540       -2.62490       -0.81350
H          0.89240        0.00420       -3.44190
H          0.62180        1.46210       -2.39520
H          2.55910        0.80110       -0.93510
H          2.85840       -0.65890       -1.97050
