18
gdb 11987	2.6516	2.13731	1.77017	1.3948	67.08	-0.2474	0.0727	0.3202	850.7428	0.152425	-384.90716	-384.899012	-384.898068	-384.938893	31.767
C         -0.11370        1.59320        0.00350
C          0.02830        0.07960        0.01240
O         -1.19050       -0.54550        0.39920
C          0.67120       -0.61440       -1.20290
C          2.11210       -0.21950       -1.35750
C          1.75160       -1.23610       -0.31180
C          1.15710       -0.55540        0.91190
O          2.05520        0.29600        1.58790
H          0.83990        2.09100       -0.18320
H         -0.82020        1.91030       -0.77370
H         -0.49780        1.93860        0.96910
H         -1.86240       -0.30810       -0.24940
H          0.10620       -1.08540       -1.99920
H          2.60790       -0.62370       -2.23440
H          2.46330        0.76510       -1.06650
H          2.15440       -2.24090       -0.32620
H          0.68040       -1.27230        1.59070
H          1.61180        0.63990        2.37000
