16
gdb 13949	5.06084	1.30485	1.21442	1.4108	69.71	-0.2351	0.0449	0.28	1007.4864	0.12918	-346.519704	-346.512142	-346.511198	-346.551912	28.451
C         -0.05700       -1.21160        0.22760
C         -0.06160       -0.01960        0.07450
C         -0.03270        1.42890       -0.12320
C          1.36750        1.99170       -0.09280
C          2.09240        2.42220        1.16670
C          1.90000        3.39970        0.04620
O          2.89260        3.21190       -0.96420
C          2.39410        1.86890       -1.21730
H         -0.06270       -2.26410        0.36680
H         -0.51020        1.67290       -1.08200
H         -0.63890        1.91670        0.65080
H          1.44670        2.56470        2.02860
H          3.09070        2.05710        1.39270
H          1.42420        4.37110        0.12120
H          3.17340        1.10510       -1.11820
H          1.94140        1.81100       -2.21450
