16
gdb 12600	2.86918	2.13946	1.29526	2.1527	64.72	-0.2403	-0.0417	0.1987	917.6474	0.129001	-383.798124	-383.790043	-383.789098	-383.83231	28.528
C         -0.44190        1.50890        0.02430
C          0.14730        0.10530        0.00340
C          1.03620       -0.24220       -1.19010
O          0.98070        0.26920       -2.27750
C          2.03660       -1.32820       -0.76740
C          2.00910       -1.36360        0.77360
C          0.99570       -0.29500        1.20970
O          0.90420        0.16880        2.31570
H          0.35230        2.26000        0.05480
H         -1.03720        1.68440       -0.87430
H         -1.06830        1.64490        0.90840
H         -0.66380       -0.64520       -0.02690
H          1.72680       -2.27810       -1.21650
H          3.01750       -1.09070       -1.18630
H          1.68150       -2.33200        1.16690
H          2.97480       -1.14910        1.23790
