18
gdb 13485	3.24185	1.64342	1.15962	3.9538	67.56	-0.2703	0.0103	0.2806	1038.9679	0.153056	-384.976592	-384.968209	-384.967264	-385.009564	30.397
C          0.02840        1.60100        0.13460
C          0.02440        0.06890        0.05150
C          0.73740       -0.56370        1.25470
C         -1.40810       -0.46620       -0.06570
C         -2.19570       -0.23000       -1.37050
O         -2.28290       -1.67520       -1.59330
C         -1.56440       -1.94170       -0.45480
O         -1.22820       -3.00570       -0.04220
H          1.05290        1.98330        0.18350
H         -0.45640        2.05930       -0.73410
H         -0.49810        1.94470        1.03270
H          0.56290       -0.22650       -0.86030
H          0.25700       -0.26210        2.19320
H          0.71280       -1.65490        1.20010
H          1.78200       -0.24010        1.29790
H         -1.97930       -0.22480        0.83710
H         -3.19140        0.20750       -1.27760
H         -1.64000        0.24750       -2.18110
