18
gdb 9132	3.96662	0.87288	0.76568	0.7456	83.07	-0.2468	0.0415	0.2883	1535.5813	0.15071	-310.613998	-310.604071	-310.603127	-310.651491	34.585
C          0.13570        1.45780       -0.39550
C         -0.01810        0.11130        0.33500
C         -1.38050       -0.41060        0.29340
C         -2.51390       -0.81470        0.25330
C         -3.88390       -1.33790        0.19190
C         -3.90030       -2.83230       -0.21810
C         -4.59720       -1.13340        1.45860
C         -5.19850       -0.99050        2.48860
H          1.17030        1.80840       -0.33560
H         -0.13490        1.36080       -1.45050
H         -0.51260        2.21710        0.05010
H          0.66740       -0.62470       -0.10450
H          0.29340        0.22420        1.38140
H         -4.42530       -0.77820       -0.58510
H         -4.93050       -3.18910       -0.29480
H         -3.40380       -2.95760       -1.18350
H         -3.37510       -3.43420        0.52670
H         -5.72250       -0.85250        3.40160
