8
gdb 53	10.10926	9.69372	4.94857	1.5081	35.17	-0.2509	0.001	0.2519	269.2444	0.058593	-246.02915	-246.025614	-246.024669	-246.055309	12.04
O         -0.03810        1.35640        0.00980
C          1.26500        1.76860       -0.00060
C          2.04960        0.66630       -0.01410
N          1.24230       -0.46730       -0.01240
C          0.04020        0.00560        0.00180
H          1.43510        2.83100        0.00340
H          3.12530        0.59780       -0.02480
H         -0.89390       -0.53340        0.00800
