15
gdb 21139	3.53339	1.96386	1.28275	0.9754	66.34	-0.203	0.0055	0.2085	925.5083	0.118476	-395.981451	-395.973122	-395.972178	-396.015807	27.587
C         -0.00840        1.43810       -0.07680
N         -0.00310       -0.01230       -0.04460
C         -1.09000       -0.64100        0.04260
O         -2.38490       -0.11590        0.13330
C         -3.20690       -1.19490        0.24040
N         -2.61360       -2.32820        0.21580
N         -1.28180       -2.00540        0.07290
C         -0.24900       -3.01020        0.07430
H          0.86790        1.81220        0.46220
H          0.07070        1.80310       -1.10980
H         -0.90500        1.88800        0.36910
H         -4.26610       -1.02120        0.33150
H         -0.44980       -3.76210       -0.69380
H          0.69000       -2.50000       -0.14400
H         -0.17590       -3.50480        1.04900
