16
gdb 5641	3.40831	1.89817	1.33369	3.445	66.31	-0.1896	0.0406	0.2302	923.5031	0.131805	-379.984466	-379.976692	-379.975748	-380.017267	28.359
C         -0.12700        1.57000       -0.02920
C          0.07310        0.05280       -0.01340
N          0.69590       -0.45480       -1.22170
C          0.09080       -0.67080       -2.45800
C          1.03580       -1.11480       -3.31160
N          2.23250       -1.16730       -2.60230
C          2.05410       -0.75610       -1.28880
O          2.88130       -0.67630       -0.39770
H          0.83460        2.08140       -0.12610
H         -0.76620        1.87910       -0.86250
H         -0.59970        1.89870        0.90160
H          0.73630       -0.23330        0.80710
H         -0.88380       -0.46170        0.13000
H         -0.96070       -0.49870       -2.61280
H          0.96620       -1.39860       -4.34690
H          3.12860       -1.45850       -2.94900
