16
gdb 5244	6.66146	1.0682	0.97649	1.2833	67.33	-0.2155	0.0204	0.2359	1168.0363	0.131044	-383.764511	-383.756765	-383.755821	-383.797441	27.787
O         -0.07570        1.43280       -0.14950
C          0.03860        0.01940       -0.11890
C         -1.35940       -0.54440        0.15160
C         -1.39080       -2.03130        0.19830
C         -1.63290       -2.93700        1.18510
C         -1.50230       -4.23700        0.59380
C         -1.18840       -4.02390       -0.70880
O         -1.11560       -2.68990       -0.96840
H          0.79080        1.80070       -0.34490
H          0.41330       -0.37810       -1.07370
H          0.72720       -0.31500        0.67270
H         -1.72110       -0.15350        1.10710
H         -2.03460       -0.16860       -0.62680
H         -1.87850       -2.70670        2.21020
H         -1.62870       -5.19350        1.07620
H         -0.99520       -4.67400       -1.54590
