14
gdb 12179	3.68358	1.53999	1.19722	1.9779	60.61	-0.2595	-0.0422	0.2173	953.7233	0.104668	-419.684371	-419.676415	-419.675471	-419.717304	27.755
O          0.63250        1.30130        0.22310
C          0.13580        0.02000        0.06940
C         -1.44260       -0.28660        0.03760
C         -1.18280       -1.32850       -1.08900
C          0.14110       -0.61040       -1.32700
O          0.77950       -0.31810       -2.29910
C         -1.97720       -0.80860        1.34050
O         -1.86810       -1.95840        1.68990
H          0.76440        1.67180       -0.65920
H          0.58550       -0.64580        0.81630
H         -1.97930        0.60140       -0.30280
H         -1.05900       -2.32340       -0.64950
H         -1.87480       -1.37320       -1.93020
H         -2.45000       -0.05100        2.00170
