16
gdb 9797	3.05325	1.62311	1.43488	2.6875	64.91	-0.2581	0.0093	0.2674	933.4483	0.129918	-379.906189	-379.89772	-379.896776	-379.939033	31.218
N         -0.28700        1.42260       -0.16270
C         -0.07890        0.00390       -0.05870
C         -0.31830       -0.61640        1.29420
C         -1.30780       -0.83400        0.17510
C          1.02430       -0.60800       -0.92560
O          0.81760       -0.40930       -2.31200
C          2.33950       -0.06590       -0.51220
N          3.34150        0.41390       -0.19280
H          0.55280        1.94750        0.06400
H         -0.60410        1.69290       -1.08800
H          0.30820       -1.44730        1.60070
H         -0.59780        0.06300        2.08990
H         -2.24950       -0.30150        0.22770
H         -1.35930       -1.81190       -0.29050
H          1.04320       -1.69330       -0.78410
H          0.87870        0.53720       -2.48670
