13
gdb 5276	5.01203	1.62583	1.23697	2.8695	62.38	-0.261	-0.0631	0.1978	907.7086	0.095718	-398.652504	-398.645484	-398.64454	-398.684332	24.542
C         -0.02640        1.51220       -0.07350
C         -0.02460        0.00280        0.05290
O         -0.03980       -0.57390        1.12160
C         -0.00300       -0.77910       -1.19200
C          0.00440       -2.11900       -1.44590
N          0.02640       -2.33270       -2.81030
C          0.03130       -1.13720       -3.31430
O          0.01440       -0.13980       -2.41140
H          0.86050        1.85220       -0.61860
H         -0.89720        1.84790       -0.64660
H         -0.04330        1.95200        0.92370
H         -0.00470       -2.92740       -0.73330
H          0.04690       -0.85290       -4.35520
