14
gdb 5149	5.6794	1.24759	1.13295	5.4909	67.51	-0.2212	0.027	0.2483	1017.2512	0.109428	-341.63637	-341.629305	-341.628361	-341.668771	25.774
N         -0.16820       -1.09700       -0.63990
C         -0.09230        0.00750       -0.30890
C          0.00390        1.41320        0.10180
C          1.40630        1.95940        0.03730
C          2.14150        2.41440        1.10860
N          3.35320        2.84230        0.63340
C          3.40840        2.66620       -0.72560
C          2.21380        2.11980       -1.12680
H         -0.67490        1.99220       -0.53720
H         -0.38770        1.49660        1.12140
H          1.89960        2.46580        2.15820
H          4.09090        3.22510        1.19780
H          4.28650        2.94120       -1.28700
H          1.94440        1.85330       -2.13740
