20
gdb 14743	10.59022	0.54689	0.52859	0.8717	81.95	-0.2412	0.0631	0.3044	2108.6408	0.174012	-348.97484	-348.964143	-348.963199	-349.013086	35.006
C         -0.02060        1.40530        0.02180
O         -0.00290       -0.00080        0.01350
C          0.64370       -0.53530       -1.11970
C          0.60730       -2.05470       -1.02880
C          1.29600       -2.72270       -2.23470
C          1.27360       -4.18010       -2.16980
C          1.24230       -5.38130       -2.09340
C          1.21020       -6.83490       -2.01120
H          0.99700        1.82830        0.02730
H         -0.55410        1.81400       -0.85160
H         -0.53850        1.72190        0.93050
H          0.14480       -0.19250       -2.04410
H          1.68790       -0.17730       -1.17080
H          1.09630       -2.37100       -0.10190
H         -0.43420       -2.38600       -0.96760
H          0.81060       -2.38920       -3.16230
H          2.33600       -2.37410       -2.29960
H          1.70970       -7.29400       -2.87180
H          1.71360       -7.19540       -1.10720
H          0.18140       -7.21140       -1.98800
