18
gdb 6827	2.75726	1.8619	1.46332	1.6468	68.09	-0.2464	-0.0266	0.2198	930.1078	0.151381	-384.942583	-384.933998	-384.933054	-384.975647	31.744
C         -0.15520        1.51240        0.11600
C         -0.00690       -0.00250        0.00640
O         -1.22990       -0.61320       -0.33970
C          1.14840       -0.44560       -0.92770
C          2.06450       -0.65490        0.30880
C          0.78460       -0.67480        1.18780
C          0.79200       -0.06520        2.55990
O         -0.14740        0.51110        3.05380
H          0.80550        1.99930        0.31400
H         -0.55060        1.90360       -0.82640
H         -0.83250        1.78200        0.93120
H         -1.91120       -0.26850        0.24860
H          0.89200       -1.39380       -1.40560
H          1.47210        0.26790       -1.68890
H          2.69420       -1.54580        0.32010
H          2.69250        0.21700        0.51540
H          0.41720       -1.70410        1.28750
H          1.74740       -0.18110        3.12480
