16
gdb 12721	3.01494	2.27541	1.69716	1.6247	65.66	-0.2434	0.0248	0.2681	812.5478	0.131745	-379.900101	-379.892813	-379.891869	-379.931544	27.654
N         -0.04250        1.41910       -0.21660
C         -0.02760        0.00160       -0.02050
C          0.40630       -0.85920       -1.24910
C         -0.87470       -1.73930       -1.10800
C         -1.27560       -0.93820        0.14020
O         -0.67590       -1.50010        1.35200
C          0.39410       -0.62540        1.29890
N          1.32590       -0.41820        2.11290
H         -0.09330        1.90670        0.67300
H          0.81980        1.71730       -0.66210
H          0.40790       -0.25880       -2.16140
H          1.36970       -1.36200       -1.14990
H         -1.57140       -1.61380       -1.93980
H         -0.72400       -2.80490       -0.92650
H         -2.30190       -0.61740        0.31390
H          1.25520       -1.02810        2.92950
