15
gdb 6308	3.81476	1.24238	1.08165	3.1246	63.09	-0.2918	-0.0074	0.2844	1105.7804	0.116188	-399.852355	-399.84333	-399.842386	-399.887464	30.221
C         -0.18290        1.63870        0.15680
C         -0.01420        0.12320        0.04290
O          0.71470       -0.39360        1.17280
C          2.06080       -0.51210        1.00540
C          2.69230       -1.07860        2.24980
O          2.63360       -0.20040       -0.00550
C         -1.30550       -0.57550        0.01860
N         -2.33320       -1.09990       -0.02820
H          0.80200        2.10930        0.12340
H         -0.78100        2.01360       -0.67770
H         -0.68120        1.89880        1.09330
H          0.54210       -0.12230       -0.86670
H          2.27950       -2.07010        2.45620
H          3.77040       -1.14380        2.11100
H          2.46000       -0.44470        3.10980
