15
gdb 19315	7.25524	0.80555	0.80215	2.0042	73.48	-0.2445	0.0147	0.2593	1420.4514	0.118517	-362.570889	-362.563017	-362.562073	-362.605037	27.369
C         -0.27980        1.31430       -0.32220
N          0.98100        1.26180        0.41970
C          0.26020       -0.00410        0.13130
C         -0.30790       -0.71420        1.24190
C         -0.80060       -1.32230        2.15860
C         -1.36690       -2.06530        3.24960
C         -1.86570       -1.39710        4.46830
O         -2.77510       -1.91240        3.50580
H         -1.10960        1.75440        0.22130
H         -0.26530        1.52020       -1.38930
H          1.76710        1.34560       -0.22030
H          0.67390       -0.63880       -0.64960
H         -1.01640       -3.09230        3.34800
H         -1.82640       -1.93000        5.41770
H         -1.81030       -0.31210        4.53120
