14
gdb 16713	3.08044	2.28132	1.80991	3.736	56.92	-0.2501	-0.0161	0.234	756.1214	0.107337	-419.653378	-419.646771	-419.645827	-419.684133	25.184
O         -0.09510        1.41390        0.01220
C         -0.00430        0.00470        0.02450
C          0.48980       -0.61260        1.38410
C         -0.81320       -1.31460        1.79380
O         -1.23250       -1.92850        0.52550
C         -1.43430       -0.57010        0.02550
C         -1.90720       -0.26620        1.46880
O         -2.80690        0.27850        2.02030
H          0.79370        1.78000       -0.02220
H          0.57100       -0.37280       -0.82910
H          1.29850       -1.33490        1.25350
H          0.80400        0.16690        2.08370
H         -0.84060       -1.98170        2.65260
H         -2.05160       -0.49020       -0.86560
