11
gdb 2742	4.89006	2.25782	1.68114	3.662	52.63	-0.2692	-0.0024	0.2668	696.9568	0.077691	-343.238086	-343.231809	-343.230865	-343.268454	22.263
O         -0.10250        0.06060       -0.25460
C         -0.02390        1.21610       -0.00830
O         -1.02150        2.08010        0.35190
C         -0.09520        3.20020        0.50610
C          1.08100        2.30830        0.03630
C          2.19980        2.09750        0.92460
C          3.12020        1.92150        1.67610
H         -0.36830        4.02540       -0.15310
H         -0.04450        3.52360        1.54630
H          1.41710        2.54910       -0.97750
H          3.93610        1.75880        2.33640
