17
gdb 16075	3.31597	1.78895	1.47235	1.7691	64.05	-0.2256	0.0657	0.2913	907.211	0.141893	-400.924282	-400.916419	-400.915475	-400.956478	29.351
C          0.03420        1.37430       -0.26240
O          0.00120        0.04880        0.25150
C         -1.22840       -0.55510        0.13450
C         -2.34320       -0.48470        1.18800
N         -2.76550       -1.88960        0.83950
C         -1.57310       -2.03370       -0.03270
C         -1.79330       -1.07930       -1.17230
O         -3.07070       -0.79980       -1.64580
H          1.06490        1.72380       -0.17130
H         -0.26880        1.40160       -1.31710
H         -0.62180        2.04650        0.30770
H         -1.92850       -0.40930        2.19720
H         -3.13320        0.26060        1.05090
H         -2.71240       -2.49760        1.64870
H         -0.98050       -2.94000       -0.06870
H         -1.05050       -1.13870       -1.96370
H         -3.67020       -1.24920       -1.02910
