22
gdb 6158	4.29551	1.08228	1.06887	1.3578	78.64	-0.2509	0.0746	0.3255	1254.3144	0.198639	-350.208239	-350.198898	-350.197953	-350.241832	35.573
C          0.09650        1.48410       -0.17250
C          0.03280       -0.02600        0.07750
C         -1.38810       -0.57600        0.07330
C         -2.17150       -0.60670       -1.27190
C         -2.71160       -2.00980       -0.90320
C         -4.12150       -1.99960       -0.32070
O         -2.62240       -2.90370       -1.99900
C         -1.58930       -2.11410        0.17680
H          1.12930        1.84620       -0.17060
H         -0.34530        1.74370       -1.14070
H         -0.45160        2.03650        0.59920
H          0.62050       -0.55090       -0.68770
H          0.50730       -0.26010        1.04010
H         -1.97740       -0.06270        0.84270
H         -2.90540        0.17900       -1.46900
H         -1.49430       -0.68700       -2.12730
H         -4.85110       -1.74560       -1.09610
H         -4.37980       -2.98530        0.08770
H         -4.21420       -1.27400        0.49360
H         -2.98830       -3.75190       -1.72490
H         -0.73090       -2.65730       -0.22980
H         -1.85420       -2.53450        1.15160
