11
gdb 2621	15.96205	0.91202	0.87585	1.8692	68.96	-0.25	-0.0424	0.2075	1195.3475	0.075151	-306.070291	-306.062773	-306.061829	-306.102582	25.31
O          0.05400       -0.14840        0.11660
C          0.04110        1.01460       -0.17580
C          1.28650        1.91040       -0.11300
C          1.32150        2.89590       -1.17700
C          1.31440        3.69820       -2.08270
C          1.31300        4.60360       -3.09820
C          1.31100        5.40700       -3.99930
H         -0.88490        1.53660       -0.49780
H          1.26130        2.41410        0.86600
H          2.17160        1.26530       -0.11540
H          1.31020        6.11330       -4.79220
