19
gdb 6908	4.6981	1.05952	0.99023	4.2929	76.54	-0.2802	0.0382	0.3184	1230.4852	0.164241	-327.94068	-327.931697	-327.930753	-327.974318	32.912
C          0.03820        1.53550       -0.12640
C          0.00070        0.02410        0.00790
C         -1.21960       -0.61080       -0.63520
C          1.30310       -0.74360       -0.04880
C          0.53910       -0.65620        1.25150
C          1.09690        0.11480        2.43980
C          2.01270       -0.69950        3.24200
N          2.72890       -1.35410        3.86960
H          0.95010        1.97560        0.28580
H         -0.00660        1.82170       -1.18330
H         -0.81830        2.00160        0.37540
H         -1.25510       -0.38860       -1.70810
H         -1.21360       -1.69900       -0.52060
H         -2.14570       -0.23170       -0.18740
H          1.33080       -1.69630       -0.56670
H          2.22330       -0.17230       -0.12710
H          0.01100       -1.55760        1.55000
H          1.63710        1.00870        2.11350
H          0.28670        0.46100        3.09350
