12
gdb 15289	5.07617	1.15707	1.01812	3.7937	59.73	-0.3219	-0.0264	0.2955	1064.8895	0.083101	-377.516597	-377.509108	-377.508164	-377.549334	25.568
N          0.00570       -1.04910       -0.58180
C         -0.00410        0.03930       -0.19590
C          0.00290        1.41320        0.30510
C          1.38750        2.03200        0.22350
O          1.77190        2.59800       -1.02000
C          1.57920        3.49110        0.07920
C          0.44530        4.38730        0.00040
N         -0.45840        5.10660       -0.03870
H         -0.70930        2.01560       -0.26670
H         -0.33310        1.41000        1.34880
H          2.17630        1.47940        0.73320
H          2.48550        3.94490        0.47470
