16
gdb 13130	4.49511	1.08318	0.92828	2.2269	62.23	-0.2589	-0.033	0.226	1206.991	0.128432	-420.86205	-420.853607	-420.852663	-420.895881	29.208
O          0.01470        1.42140       -0.13540
C          0.01900        0.03040        0.14040
C         -1.35500       -0.51450       -0.23440
C         -1.46780       -2.00910        0.01480
O         -1.39350       -2.38110        1.41840
C         -2.69200       -3.00670        1.43160
C         -2.87180       -2.63250       -0.04520
O         -3.72320       -2.75030       -0.87070
H          0.84760        1.79170        0.17070
H          0.79550       -0.49270       -0.44280
H          0.21200       -0.17280        1.20370
H         -2.11970        0.01940        0.34000
H         -1.54830       -0.32180       -1.29610
H         -0.72550       -2.56570       -0.57710
H         -2.64940       -4.08460        1.63480
H         -3.39260       -2.53310        2.13060
