13
gdb 2915	6.70452	1.91876	1.64348	3.8049	50.84	-0.2478	-0.0359	0.2119	730.8645	0.101295	-381.587333	-381.580721	-381.579777	-381.618965	22.263
O         -0.67000        0.59160        0.45710
C          0.17800        0.93060       -0.32110
C          1.40590        1.76290        0.05730
O          2.55230        1.03770       -0.31970
C          3.44990        1.96460       -0.92720
C          2.49550        2.95610       -1.58570
O          1.38770        2.97130       -0.68460
H          0.14050        0.68300       -1.40520
H          1.38900        1.99640        1.13190
H          4.07830        2.45270       -0.16920
H          4.08350        1.41810       -1.62840
H          2.89380        3.97120       -1.66020
H          2.18390        2.61640       -2.58210
