16
gdb 20281	5.29153	2.12639	2.03699	1.8812	66.51	-0.2515	0.0769	0.3284	709.7307	0.133276	-346.529128	-346.523921	-346.522977	-346.558071	22.532
C         -0.07710        1.54630        0.00970
C          1.44420        1.28500       -0.00550
C          1.23420        0.11620        1.03320
C          2.24120       -0.98030        0.70610
O          1.67920       -2.08760       -0.02510
C          2.22790       -0.97270       -0.75500
C          1.21510        0.12690       -1.05230
C          0.06480        0.00480        0.00050
H         -0.49090        1.99540        0.91700
H         -0.50730        2.00470       -0.88510
H          2.25230        2.01970       -0.00910
H          1.01020        0.35720        2.07290
H          3.10590       -1.20170        1.32300
H          3.08110       -1.18760       -1.38980
H          0.97210        0.37870       -2.08510
H         -0.72400       -0.74540        0.00380
