20
gdb 10734	2.88476	1.6123	1.3813	0.5832	80.29	-0.2555	0.0616	0.317	1023.9549	0.174629	-311.825712	-311.816495	-311.815551	-311.859115	35.132
C          0.11370        1.45290        0.01080
C         -0.02580       -0.08830        0.04650
C          0.59190       -0.62170        1.35820
C         -1.45250       -0.44110        0.02080
C         -2.62090       -0.72470       -0.00300
C          0.62880       -0.66500       -1.22050
C          2.10610       -0.94250       -1.34010
C          1.11430       -2.08250       -1.34740
H          1.17210        1.73150        0.02170
H         -0.34180        1.86410       -0.89430
H         -0.37770        1.90840        0.87510
H          0.07090       -0.18460        2.21410
H          0.50170       -1.70770        1.43590
H          1.64850       -0.34820        1.43190
H         -3.65170       -0.97810       -0.02520
H          0.16630       -0.26330       -2.11820
H          2.60050       -0.67430       -2.26740
H          2.73270       -0.83270       -0.46210
H          1.08370       -2.72340       -0.47370
H          0.92470       -2.60310       -2.27950
