13
gdb 20702	3.52231	2.06659	1.31312	3.5586	61.9	-0.2816	-0.0629	0.2187	862.2305	0.096576	-394.824781	-394.817823	-394.816879	-394.856244	24.324
C         -0.02950        1.49770        0.00550
C         -0.01220        0.00700       -0.04490
N         -0.03420       -0.71900       -1.13530
C         -0.00460       -2.00830       -0.65840
N          0.03430       -2.13290        0.64480
N          0.02960       -0.82570        1.05610
C          0.06370       -0.46480        2.41430
O          0.09930       -1.23930        3.32370
H          0.86420        1.89920        0.49380
H         -0.06200        1.86880       -1.01920
H         -0.90510        1.87700        0.54190
H         -0.01240       -2.86980       -1.30980
H          0.05320        0.63270        2.52870
