16
gdb 9741	3.78308	1.63134	1.55766	3.512	61.24	-0.2422	-0.0305	0.2117	884.4507	0.128564	-420.886641	-420.878556	-420.877612	-420.91978	28.498
C         -0.16930        1.48470       -0.19870
C          0.06090       -0.00770       -0.06980
O          0.82450       -0.54220       -1.14370
C          2.11860       -0.86640       -0.64470
C          1.83970       -1.18450        0.82070
O          0.76930       -0.29680        1.13270
C         -1.24090       -0.82680       -0.03100
O         -2.34590       -0.36680       -0.12020
H          0.79190        2.00070       -0.25460
H         -0.74980        1.69510       -1.09900
H         -0.72540        1.85420        0.66560
H          2.50910       -1.71070       -1.21730
H          2.80270       -0.01280       -0.74720
H          1.53850       -2.23190        0.95620
H          2.67520       -0.96410        1.49010
H         -1.05490       -1.91540        0.10390
