14
gdb 20512	4.93391	1.5899	1.21154	2.2015	66.21	-0.2574	-0.0552	0.2022	935.1211	0.108536	-378.76514	-378.757983	-378.757039	-378.796896	25.717
C         -0.06280        1.50180        0.00990
C          0.04880       -0.01450        0.00320
O          1.12330       -0.57890       -0.00820
C         -1.20430       -0.79000        0.01100
C         -1.39670       -2.16420        0.00750
C         -2.78920       -2.33410        0.01880
N         -3.43240       -1.16180        0.02870
N         -2.45770       -0.24720        0.02370
H          0.93910        1.93130        0.00310
H         -0.61300        1.85660       -0.86950
H         -0.59820        1.85000        0.90090
H         -0.61940       -2.90950       -0.00190
H         -3.35790       -3.25190        0.02020
H         -2.70820        0.72750        0.02940
