15
gdb 17084	5.36842	1.52311	1.4485	4.703	73.37	-0.2485	-0.0482	0.2003	880.272	0.12168	-325.514376	-325.508272	-325.507327	-325.544604	24.203
N          0.05150       -1.10580       -0.03770
C         -0.00320        0.05240       -0.01650
C         -0.02910        1.46150        0.00950
C         -1.06730        2.31590        0.01790
C         -0.39630        3.68710        0.04820
C          0.73970        3.46660       -1.01500
C          1.19670        2.40020        0.03610
C          0.72400        3.42700        1.11910
H         -2.12610        2.10290        0.00620
H         -1.02930        4.57240        0.05990
H          0.44570        3.11030       -2.00450
H          1.42450        4.31580       -1.09110
H          2.18610        1.94730        0.03500
H          1.40720        4.27270        1.23680
H          0.41550        3.03430        2.09030
