17
gdb 13520	3.26795	1.64852	1.43828	4.4321	64.35	-0.244	0.0172	0.2612	933.4401	0.141588	-401.017118	-401.008449	-401.007505	-401.051102	30.508
C         -0.83410        1.26010        0.21830
C         -0.18230       -0.10190        0.08550
O          0.84660       -0.12600       -0.92560
C          1.85140       -0.53230        0.02520
C          0.83600       -0.57450        1.18110
C          1.09970        0.39180        2.32230
N          0.47520        0.07930        3.49480
O          1.78600        1.38950        2.19730
H         -0.09420        2.02340        0.46950
H         -1.30950        1.52830       -0.73020
H         -1.60630        1.24500        0.99570
H         -0.94320       -0.86710       -0.12220
H          2.30460       -1.49440       -0.24020
H          2.62640        0.22940        0.15450
H          0.61630       -1.57690        1.55520
H         -0.06660       -0.75790        3.61320
H          0.59160        0.69930        4.27970
