18
gdb 8416	3.41988	1.85861	1.56339	0.8725	67.43	-0.24	0.0678	0.3078	877.3402	0.152609	-384.903771	-384.895805	-384.89486	-384.935277	31.494
C         -0.12960        1.56350       -0.11990
C          0.08020        0.05550       -0.07670
O         -1.14950       -0.62420       -0.30990
C          1.24530       -0.56260       -0.92770
C          1.77340       -1.27100        0.32710
C          2.13800       -0.28410        1.37420
O          2.76100        0.92190        1.01960
C          0.67750       -0.58440        1.18410
H          0.81000        2.09320        0.04590
H         -0.51650        1.86630       -1.10200
H         -0.85900        1.86960        0.63700
H         -1.50140       -0.30650       -1.14900
H          0.84280       -1.25560       -1.66860
H          1.94070        0.13390       -1.40260
H          2.12610       -2.29480        0.35960
H          2.54580       -0.73710        2.27920
H          2.53930        1.57670        1.69030
H          0.06100       -0.99130        1.97790
