19
gdb 14755	10.58583	0.59076	0.56946	4.7361	74.17	-0.265	0.0361	0.3011	1903.3276	0.163838	-365.077594	-365.06785	-365.066906	-365.113334	32.803
C         -0.09830        1.51850        0.01140
C         -0.02780        0.00140        0.00240
O         -1.34630       -0.51190        0.01230
C         -1.39920       -1.91650        0.00520
C         -2.86410       -2.33700        0.01680
C         -3.01010       -3.87010        0.01010
C         -4.40610       -4.30120        0.02080
N         -5.51370       -4.63010        0.02940
H          0.90870        1.94600        0.00400
H         -0.63720        1.88300       -0.86760
H         -0.62000        1.87330        0.90460
H          0.51100       -0.35710       -0.89120
H          0.52810       -0.36690        0.88140
H         -0.89130       -2.32170       -0.88850
H         -0.87460       -2.33120        0.88490
H         -3.35170       -1.92070        0.90320
H         -3.36820       -1.91140       -0.85600
H         -2.52480       -4.29690       -0.87590
H         -2.50840       -4.30620        0.88220
