14
gdb 21245	3.48178	1.94528	1.2638	3.4866	60.72	-0.2067	0.0076	0.2143	910.4941	0.108472	-412.019508	-412.011711	-412.010767	-412.052063	27.18
C          0.00650        1.41720       -0.01780
O          0.00300       -0.00870        0.01510
C          0.60790       -0.61100       -1.02700
C          0.66680       -1.97750       -1.22960
N          0.14380       -3.08620       -0.55180
N          1.35040       -2.06880       -2.40030
N          1.70780       -0.86620       -2.87850
N          1.23760        0.02730       -2.03830
H          1.02890        1.80830       -0.01270
H         -0.50400        1.79160       -0.91110
H         -0.52340        1.73740        0.88040
H         -0.59450       -2.78920        0.07620
H          0.84330       -3.57150        0.00290
H          1.58700       -2.90410       -2.91210
