15
gdb 21024	6.57941	1.29113	1.11391	4.6057	63.38	-0.2536	0.003	0.2566	1038.9481	0.120426	-396.002115	-395.994361	-395.993417	-396.035032	26.837
C         -0.38710        1.34340       -0.09090
N          0.00230       -0.04600        0.01600
C          0.58350       -0.84730       -0.89620
N          0.75930       -2.05800       -0.40040
C          0.24680       -1.94540        0.85910
C          0.26550       -3.11570        1.79850
O          0.10710       -4.33440        1.10340
N         -0.22710       -0.74620        1.15670
H          0.12870        1.93750        0.66740
H         -0.11720        1.70870       -1.08330
H         -1.46580        1.44370        0.05210
H          0.85280       -0.51090       -1.88640
H          1.21030       -3.10240        2.36870
H         -0.54940       -3.02110        2.52230
H          0.56050       -4.22300        0.25800
