20
gdb 8244	4.87451	1.08548	0.94659	3.497	71.26	-0.2333	0.0628	0.2961	1254.177	0.176049	-386.118427	-386.109413	-386.108469	-386.152578	32.445
C          0.01280        1.56750        0.07560
C          0.01090        0.04080        0.00390
O          0.60170       -0.53150        1.17070
C         -1.40010       -0.53900       -0.10060
C         -1.42770       -2.05970       -0.18080
C         -1.21570       -2.88330        1.10920
O         -2.44420       -3.61520        0.89430
C         -2.80260       -2.76480       -0.21070
H          1.03580        1.95330        0.15530
H         -0.43630        2.00550       -0.82180
H         -0.54890        1.90960        0.95060
H          0.57860       -0.27340       -0.88920
H          1.49870       -0.19260        1.25090
H         -1.98570       -0.20290        0.76550
H         -1.88010       -0.11580       -0.99240
H         -0.77950       -2.40320       -0.99330
H         -0.34200       -3.54280        1.13910
H         -1.24480       -2.29040        2.03070
H         -3.65210       -2.10920        0.03340
H         -3.04940       -3.33820       -1.11270
