15
gdb 20913	3.3757	1.96584	1.35135	2.3155	62.26	-0.2373	0.0279	0.2652	899.4118	0.120823	-396.015805	-396.008369	-396.007424	-396.048213	26.686
C         -0.19290        1.56510       -0.05340
C          0.09620        0.06590        0.01460
N          0.78270       -0.42090       -1.17000
N          0.14680       -0.51200       -2.38190
C          1.10410       -0.96190       -3.16760
N          2.31420       -1.16980       -2.56830
C          2.05880       -0.81500       -1.32680
O          2.91250       -0.82180       -0.29490
H          0.73570        2.14060       -0.10950
H         -0.79680        1.79390       -0.93470
H         -0.74190        1.88140        0.83840
H          0.73230       -0.17670        0.86930
H         -0.83400       -0.50150        0.11300
H          0.93210       -1.15360       -4.21630
H          3.75330       -1.15230       -0.63550
