20
gdb 10296	2.10348	1.72104	1.21222	1.3248	76.52	-0.2607	0.0532	0.3139	1107.517	0.173959	-348.972911	-348.962814	-348.96187	-349.0076	36.563
C          0.71910       -0.34770        1.31150
C          0.10160       -0.13800       -0.07620
C          0.97910       -0.75860       -1.17020
C         -1.36710       -0.65740       -0.10530
C         -2.13560       -0.23440       -1.37020
O         -2.12160        1.18310       -1.42780
C         -1.46030       -2.10620        0.06280
C         -1.53950       -3.30090        0.17820
H          1.72850        0.07360        1.35400
H          0.12150        0.13590        2.09190
H          0.78820       -1.41340        1.55450
H          0.02700        0.93810       -0.26430
H          1.03380       -1.84680       -1.06120
H          0.60360       -0.53710       -2.17380
H          1.99760       -0.36220       -1.10900
H         -1.88770       -0.18190        0.73790
H         -1.66810       -0.68180       -2.25890
H         -3.16190       -0.62390       -1.30600
H         -2.57130        1.45690       -2.23210
H         -1.61270       -4.35390        0.29380
