17
gdb 20800	3.18176	1.79049	1.25555	3.2065	70.48	-0.202	0.0356	0.2376	983.1669	0.143963	-360.066261	-360.05791	-360.056966	-360.099961	30.013
C          0.04900        1.57930       -0.01320
C          0.01040        0.04140        0.04320
C         -1.37760       -0.52970        0.01680
C         -2.18680       -0.74810       -1.08840
N         -1.95370       -0.62370       -2.46510
N         -3.36370       -1.23300       -0.61840
N         -3.39320       -1.34550        0.73290
C         -2.19180       -0.92490        1.10650
H          1.07840        1.95170        0.01460
H         -0.42070        1.95220       -0.92980
H         -0.49470        2.01240        0.83190
H          0.60520       -0.36400       -0.78690
H          0.51730       -0.29770        0.95400
H         -1.01340       -0.29770       -2.64790
H         -2.60540        0.00350       -2.92420
H         -4.14380       -1.56360       -1.16020
H         -1.93500       -0.90850        2.15710
