13
gdb 21087	3.62985	1.96695	1.2861	4.403	63.1	-0.2712	-0.0774	0.1938	875.2813	0.096481	-394.80815	-394.800923	-394.799979	-394.840894	24.298
C         -0.02780        1.45280        0.00420
N         -0.00960       -0.00180        0.04560
N         -0.03380       -0.70240       -1.10020
C         -0.00740       -1.96510       -0.67270
N          0.03240       -2.11450        0.66530
C          0.03040       -0.85880        1.10450
C          0.06520       -0.40980        2.50680
O          0.10040       -1.15100        3.45590
H          0.87310        1.86510        0.46530
H         -0.06120        1.73870       -1.04600
H         -0.91010        1.84430        0.51640
H         -0.01740       -2.79240       -1.36640
H          0.05700        0.69480        2.63410
