16
gdb 20599	3.33915	1.98905	1.2667	1.6995	68.	-0.1963	0.0395	0.2358	936.4765	0.132324	-376.121788	-376.113311	-376.112366	-376.154296	30.905
C         -0.04600        1.51140        0.13060
C         -0.00440        0.02900       -0.01690
C         -0.01600       -0.75090       -1.16090
N         -0.10410       -0.26820       -2.49570
C          0.02560       -2.09100       -0.68550
N         -0.05500       -3.24580       -1.47100
N          0.06520       -2.14690        0.63910
N          0.04570       -0.83950        1.02140
H          0.91410        1.92420        0.46340
H         -0.28410        1.95150       -0.84050
H         -0.80870        1.82720        0.85110
H          0.79340       -0.28010       -2.97150
H         -0.73860       -0.84100       -3.04350
H          0.57260       -3.21860       -2.26550
H          0.12800       -4.07420       -0.91760
H          0.06700       -0.62430        2.00230
