17
gdb 15059	2.36644	1.98802	1.13941	4.0738	69.15	-0.251	0.028	0.279	1029.9248	0.142626	-360.009732	-360.001238	-360.000294	-360.042961	30.47
N         -0.05640        1.48260        0.19310
C          0.10520        0.04680       -0.02490
C          0.88780       -0.57640        1.14770
C          0.96340       -2.03590        0.97910
N          1.00030       -3.18320        0.84950
N          2.24420       -0.02540        1.20600
C          2.43170        1.10330        2.12460
C          2.96630       -0.24040        2.46110
H          0.80840        1.96210       -0.03570
H         -0.76150        1.84700       -0.43870
H         -0.88610       -0.41620       -0.05380
H          0.62380       -0.22040       -0.95750
H          0.32380       -0.37840        2.07620
H          3.09540        1.88450        1.76600
H          1.56280        1.45770        2.67280
H          2.46240       -0.79750        3.24840
H          4.02360       -0.46100        2.35460
