23
gdb 6897	2.26729	1.73748	1.3344	1.2011	82.84	-0.2099	0.0791	0.289	1112.6069	0.209285	-330.312389	-330.302164	-330.30122	-330.346812	37.7
C          0.89800        2.24850       -0.71990
C          1.51890        0.98270       -0.12970
N          1.42240       -0.11540       -1.08380
C          1.66760       -1.50070       -0.66520
C          2.05270       -1.89170        0.74690
C          0.29280       -1.06050       -1.07610
C         -0.83060       -0.95690       -0.05930
C         -0.19670       -1.42630       -2.46640
H          1.36390        2.49110       -1.67900
H         -0.17510        2.11550       -0.89230
H          1.02740        3.09730       -0.04070
H          2.58610        1.15200        0.06050
H          1.05890        0.77660        0.84860
H          2.23430       -2.05980       -1.41250
H          1.47070       -1.38200        1.51610
H          1.91540       -2.96970        0.88560
H          3.11040       -1.67180        0.93080
H         -0.49350       -0.70800        0.94750
H         -1.55650       -0.19470       -0.36600
H         -1.36770       -1.91000        0.00070
H         -0.68900       -2.40600       -2.46630
H         -0.92100       -0.68830       -2.83120
H          0.63770       -1.45380       -3.17110
