18
gdb 8055	3.3496	1.81692	1.52346	2.6558	73.2	-0.2442	-0.0262	0.218	903.646	0.153364	-347.767548	-347.760006	-347.759062	-347.799317	28.726
C          0.48050        1.23090        0.37330
C          0.19090       -0.22640        0.13260
C          0.62550       -1.09650       -1.08690
C         -0.20300       -2.05020       -0.17980
C          0.57190       -1.44610        1.02820
C         -1.23920       -0.90110       -0.04780
C         -2.23210       -0.85580        1.07530
O         -2.32430       -1.65490        1.97600
H          1.56150        1.40410        0.41610
H          0.07300        1.85490       -0.42960
H          0.05060        1.57300        1.32060
H          0.19720       -0.83370       -2.05890
H          1.69550       -1.30940       -1.16320
H         -0.43130       -3.10030       -0.35710
H          1.64030       -1.67630        1.07380
H          0.10090       -1.52410        2.00670
H         -1.73830       -0.59150       -0.97550
H         -2.92980        0.01400        1.02190
