20
gdb 15271	2.61683	1.7098	1.29146	1.4815	72.44	-0.2273	0.074	0.3013	1057.8562	0.174487	-386.09728	-386.087634	-386.08669	-386.131591	33.812
C          0.09540        1.13970        0.37840
O         -0.12600        0.03430       -0.48100
C         -1.35910       -0.56920       -0.28080
C         -1.43960       -2.05280       -0.55350
C         -0.20440       -2.79570       -1.01510
C         -1.54260       -1.52530        0.87340
O         -0.46540       -1.66490        1.74240
C         -0.49660       -2.87610        2.47260
H          1.07430        1.55100        0.12040
H         -0.66650        1.92060        0.23110
H          0.09300        0.83250        1.43060
H         -2.21380        0.05690       -0.54720
H         -2.37340       -2.39320       -0.99400
H          0.67780       -2.45330       -0.47310
H         -0.31560       -3.87380       -0.85860
H         -0.02720       -2.62900       -2.08250
H         -2.51840       -1.56000        1.36270
H          0.37770       -2.87880        3.12770
H         -1.40490       -2.94930        3.09000
H         -0.45490       -3.75230        1.81160
