14
gdb 598	6.06795	2.83481	2.21906	0.8753	59.69	-0.24	0.0508	0.2907	602.7793	0.118547	-233.255379	-233.248816	-233.247872	-233.285091	24.264
C         -0.08530        1.52990       -0.06710
C          0.01390        0.02520        0.01700
C          1.31700       -0.67960       -0.22010
C          0.72580       -0.65490        1.18460
C          1.35230        0.11260        2.22000
C          1.87110        0.75080        3.09880
H          0.81540        2.00670        0.32860
H         -0.21450        1.85270       -1.10590
H         -0.93770        1.90290        0.51050
H         -0.87270       -0.50580       -0.31930
H          1.32030       -1.62940       -0.74300
H          2.19720       -0.06810       -0.38550
H          0.28240       -1.58640        1.52460
H          2.33240        1.31080        3.87360
