18
gdb 10735	2.48265	1.90197	1.5447	1.7947	72.91	-0.2569	0.0529	0.3098	942.9924	0.150583	-347.750596	-347.741627	-347.740682	-347.783579	33.364
C         -0.07570        1.45720       -0.18500
C          0.01140       -0.06850        0.05650
C          0.73830       -0.35970        1.39010
C         -1.34140       -0.63030        0.10220
C         -2.45520       -1.07670        0.17610
C          0.83090       -0.68450       -1.08180
C          0.53980       -1.97610       -1.71110
O          0.23620       -0.74080       -2.37160
H          0.92860        1.89380       -0.20290
H         -0.56210        1.66260       -1.14120
H         -0.64880        1.94100        0.61020
H          0.20050        0.09630        2.22510
H          0.80640       -1.43550        1.57270
H          1.75200        0.05410        1.36730
H         -3.44110       -1.46800        0.22870
H          1.86710       -0.33720       -1.08450
H          1.35060       -2.55340       -2.15320
H         -0.32650       -2.54490       -1.38210
