18
gdb 7150	7.35984	0.78649	0.72508	4.448	67.19	-0.2459	-0.0121	0.2338	1567.5617	0.149533	-422.054365	-422.044418	-422.043474	-422.090373	32.628
C          0.06800        1.40570       -0.09270
O          0.13430        0.00670        0.05890
C          0.53860       -0.64580       -1.10380
C          0.52390       -2.15950       -0.89240
O         -0.00890       -2.68790        0.04430
C          1.25320       -2.93530       -1.98890
O          0.94820       -4.29200       -1.90320
C          1.63880       -5.07000       -2.85320
H          1.04810        1.83750       -0.35100
H         -0.65230        1.69800       -0.87320
H         -0.25920        1.81820        0.86410
H         -0.13370       -0.42250       -1.95480
H          1.54950       -0.33130       -1.42560
H          0.98630       -2.51180       -2.97570
H          2.33750       -2.74960       -1.86250
H          2.73050       -4.99400       -2.72710
H          1.33580       -6.10810       -2.70090
H          1.39090       -4.77350       -3.88490
