18
gdb 12817	3.32352	2.10937	1.64289	0.4302	67.6	-0.226	0.0838	0.3098	850.3884	0.154001	-384.917317	-384.909969	-384.909025	-384.948516	28.755
C         -0.00310        1.46520       -0.06120
C         -0.03780       -0.03850        0.03960
C         -0.86570       -0.69080        1.12720
C          0.65360       -0.73570        1.18240
O          1.27000       -1.97390        0.95830
C          1.68650       -2.14300       -0.38960
C          0.51560       -1.92570       -1.33350
O          0.02900       -0.59380       -1.25080
H          0.91260        1.79580       -0.56140
H         -0.85850        1.82560       -0.64210
H         -0.04550        1.92350        0.93050
H         -1.40480       -0.05310        1.81970
H         -1.34700       -1.63730        0.90810
H          1.17370       -0.13560        1.92710
H          2.50030       -1.44480       -0.63930
H          2.06440       -3.16630       -0.47020
H          0.81770       -2.07470       -2.37480
H         -0.27990       -2.64990       -1.09920
