12
gdb 340	9.01877	2.42338	1.93317	2.4166	51.06	-0.2595	-0.0171	0.2424	607.0428	0.096802	-302.579718	-302.573326	-302.572382	-302.60969	21.581
C         -0.01940        1.49530        0.02370
N         -0.00030        0.03580        0.01840
C          0.05020       -0.65060        1.22050
N          0.08030       -0.03730        2.33250
C         -0.03240       -0.65750       -1.17560
O         -0.07840       -0.15200       -2.27060
H          0.87690        1.87680        0.51790
H         -0.05790        1.82460       -1.01310
H         -0.89100        1.85370        0.57600
H          0.05990       -1.73740        1.08380
H          0.11560       -0.70180        3.10280
H         -0.01380       -1.75160       -1.01570
