17
gdb 19405	3.16412	2.13265	1.60439	2.3386	67.75	-0.2339	0.0761	0.31	848.1416	0.141762	-363.789825	-363.782599	-363.781655	-363.820974	27.941
C         -0.20980        1.58690       -0.07180
C          0.07010        0.09920        0.02940
N          0.98470       -0.51730       -1.01650
C          2.34900       -0.02050       -0.75920
C          1.82920       -1.09980        0.10620
C          0.92790       -0.49810        1.15640
C          1.18570       -0.10880        2.54400
O          0.36180       -1.24090        2.21490
H          0.69650        2.19320        0.01240
H         -0.68600        1.81700       -1.03030
H         -0.89340        1.89650        0.72580
H         -0.86930       -0.46090       -0.01600
H          3.04650       -0.29170       -1.54570
H          2.50180        0.97350       -0.34670
H          2.18890       -2.12280        0.09300
H          2.14340       -0.34640        3.00550
H          0.65640        0.73790        2.97930
