18
gdb 9170	8.25912	0.79338	0.73365	1.8829	76.48	-0.246	-0.0101	0.2359	1563.0991	0.152211	-381.167919	-381.15834	-381.157396	-381.203417	32.657
C         -0.34580        1.43370        0.43640
C         -0.29170        0.07220       -0.25180
C          0.72990        0.02850       -1.38220
O          1.42430        0.97120       -1.70050
N          0.80280       -1.19420       -2.02720
C          1.66050       -1.46390       -3.08400
N          1.67500       -2.60600       -3.62840
C          2.59860       -2.80910       -4.72600
H          0.62640        1.69340        0.86190
H         -0.60960        2.21920       -0.27560
H         -1.08770        1.42730        1.23950
H         -0.04320       -0.72070        0.46620
H         -1.27260       -0.19780       -0.66500
H          0.20880       -1.95670       -1.73450
H          2.27940       -0.60510       -3.35940
H          3.27910       -3.63430       -4.48550
H          2.04350       -3.10870       -5.62260
H          3.20190       -1.92090       -4.97110
