12
gdb 15481	3.0933	2.11132	1.49041	2.7539	55.59	-0.2752	-0.0124	0.2628	813.7372	0.083264	-418.465975	-418.459045	-418.458101	-418.497536	24.652
O         -0.06600        0.00620       -0.23980
C         -0.01560        1.17850       -0.03970
O         -1.09090        1.96410        0.21930
C         -0.64200        3.29920        0.45550
O          0.63870        3.40730       -0.11520
C          1.21930        2.11060       -0.02730
C          2.01800        1.91090        1.17960
C          2.65720        1.75490        2.18420
H         -1.31530        3.99710       -0.04610
H         -0.62620        3.47560        1.54020
H          1.81810        1.94090       -0.92620
H          3.23190        1.61120        3.06640
