12
gdb 4669	5.4794	1.42668	1.13195	5.6961	60.09	-0.2306	-0.0362	0.1945	949.36	0.085159	-414.712133	-414.70548	-414.704536	-414.743061	24.463
O          0.10580        1.30740        0.17230
C          0.07210       -0.02230        0.02010
N          0.09560       -0.69430       -1.09080
C          0.03980       -2.02690       -0.69310
C          0.04210       -3.16580       -1.60640
O          0.09240       -3.11040       -2.81270
C         -0.01590       -2.11580        0.67840
N          0.00450       -0.81650        1.13160
H          0.15160        1.68370       -0.71660
H         -0.00880       -4.14440       -1.07350
H         -0.06670       -2.95800        1.34840
H         -0.02350       -0.49800        2.08590
