18
gdb 19398	3.04649	2.15569	1.60946	1.4121	71.71	-0.2253	0.0774	0.3027	862.8301	0.154818	-343.906911	-343.899616	-343.898672	-343.938073	28.709
C         -0.06140        1.58250       -0.08060
C          0.04150        0.06780        0.01970
C          1.05600       -0.66180       -0.88650
N          2.40610       -0.20090       -0.48090
C          1.73140       -1.28470        0.28520
C          0.78360       -0.57510        1.22870
C          1.00850       -0.05060        2.58760
N          0.15220       -1.24060        2.36080
H          0.93420        2.03130       -0.04400
H         -0.54270        1.88220       -1.01810
H         -0.65780        1.99550        0.74070
H         -0.94400       -0.40330       -0.08160
H          0.87800       -1.06120       -1.87720
H          3.07340       -0.65170       -1.10680
H          2.17760       -2.26360        0.40670
H          1.94200       -0.25040        3.10630
H          0.53170        0.88850        2.85810
H         -0.82950       -0.97770        2.41910
