16
gdb 8349	5.17624	1.29003	1.25676	2.9518	65.57	-0.2431	-0.026	0.2171	991.0781	0.128982	-383.679348	-383.671991	-383.671047	-383.711961	26.969
O         -0.50830        0.66570        0.68450
C          0.11550        1.01370       -0.28440
C          1.37120        1.86600       -0.22910
C          1.32060        3.01880       -1.19570
C          0.24630        4.12920       -1.37570
C          1.23300        4.17490       -2.56240
C          2.42140        4.04210       -1.58150
O          1.16950        2.69560       -2.64310
H         -0.19200        0.72050       -1.31070
H          1.51960        2.22000        0.79500
H          2.22310        1.22740       -0.50250
H         -0.75600        3.77380       -1.61830
H          0.24660        4.96240       -0.66860
H          1.16660        4.72900       -3.49760
H          2.62080        4.86830       -0.89450
H          3.32660        3.60600       -2.00600
