13
gdb 1610	3.86878	2.22582	1.58242	0.9633	51.49	-0.2681	-0.1102	0.1579	756.6399	0.098581	-381.606362	-381.598596	-381.597651	-381.638553	26.482
C          0.26490        1.33300        0.38180
C         -0.00020       -0.11770       -0.06280
O         -1.36780       -0.42500        0.01360
C          0.50230       -0.35360       -1.47490
O         -0.25270       -0.61920       -2.38580
C          2.00250       -0.28470       -1.77370
O          2.84400       -0.10360       -0.93420
H          1.33570        1.54200        0.42840
H         -0.21740        2.03770       -0.30240
H         -0.16930        1.47090        1.37450
H          0.57040       -0.78850        0.59880
H         -1.66020       -0.60240       -0.89280
H          2.23000       -0.44340       -2.84830
