20
gdb 10757	3.40702	1.40092	1.29873	0.943	70.55	-0.2636	0.0701	0.3337	1045.1355	0.174732	-386.115697	-386.106306	-386.105362	-386.149222	34.613
C         -0.17990        1.64610        0.05030
C          0.05600        0.12450        0.05630
C          0.83630       -0.29940        1.31080
C         -1.29690       -0.61370        0.02200
O         -2.06190       -0.23190        1.15640
C          0.78210       -0.25310       -1.23010
C          2.22850       -0.47310       -1.34850
O          1.31780       -1.57600       -1.34090
H          0.77050        2.18880        0.07710
H         -0.72280        1.96080       -0.84860
H         -0.77400        1.94030        0.91800
H          0.19330       -0.21330        2.18900
H          1.16870       -1.33800        1.22350
H          1.71410        0.33430        1.46970
H         -1.82650       -0.35760       -0.91060
H         -1.11010       -1.69760        0.01230
H         -2.86280       -0.76280        1.17120
H          0.26410        0.07450       -2.13550
H          2.72280       -0.28410       -2.30070
H          2.86810       -0.39470       -0.47260
