17
gdb 10200	3.52015	1.13507	0.90291	4.0326	65.68	-0.2749	0.0278	0.3026	1265.074	0.140469	-400.993795	-400.984372	-400.983428	-401.028625	31.885
C          0.01340        1.35980        0.08470
O         -0.03690       -0.04600       -0.02160
C          0.65550       -0.53930       -1.13820
C          0.59550       -2.07090       -1.09810
C          1.19540       -2.71130       -2.37440
O          1.11200       -4.11550       -2.36500
C          1.29510       -2.60190        0.07510
N          1.88990       -3.07210        0.94790
H          1.04800        1.72220        0.18200
H         -0.44560        1.85020       -0.78770
H         -0.54520        1.63540        0.98140
H          0.19540       -0.18900       -2.07790
H          1.70430       -0.20000       -1.13650
H         -0.45570       -2.37160       -1.02430
H          0.61410       -2.37220       -3.23710
H          2.23000       -2.35910       -2.50480
H          1.66660       -4.44490       -1.64790
