18
gdb 19426	3.89233	1.91822	1.60879	1.8271	71.01	-0.255	0.0936	0.3486	855.7473	0.15547	-347.78719	-347.780484	-347.779539	-347.817803	27.083
C         -0.05910        1.49440       -0.00010
C          1.27450        0.78900       -0.05870
C         -0.00730       -0.00770        0.01720
C         -0.38420       -0.83420        1.25120
C         -0.32610       -2.31100        0.77990
C         -0.60150       -2.22920       -0.71070
O         -1.72770       -1.40490       -1.04570
C         -0.40720       -0.84540       -1.16030
H         -0.32930        1.99970        0.92150
H         -0.41890        1.98760       -0.89720
H          1.82070        0.80350       -0.99690
H          1.90750        0.81280        0.82230
H          0.27200       -0.63920        2.10360
H         -1.40510       -0.58850        1.55620
H          0.67290       -2.73910        0.92810
H         -1.03990       -2.94910        1.30970
H         -0.44480       -3.08980       -1.35660
H         -0.09610       -0.57750       -2.16760
