14
gdb 5792	6.27202	1.42995	1.25676	3.3206	63.56	-0.2212	0.0257	0.2469	928.3096	0.109411	-378.732762	-378.726225	-378.72528	-378.763967	24.154
C          0.93410        1.01600       -0.09140
O          0.06280        0.17140       -0.84270
C         -0.39260        0.63830        0.43080
C         -0.56640       -0.38970        1.47620
C         -0.18330       -1.70660        1.43580
N         -0.57090       -2.22960        2.64920
C         -1.16630       -1.22630        3.35330
N         -1.18310       -0.10260        2.67500
H          1.81780        0.53010        0.31900
H          1.09050        2.01230       -0.50350
H         -1.18150        1.38890        0.39430
H          0.29440       -2.29700        0.67350
H         -0.45600       -3.18370        2.94720
H         -1.56720       -1.37550        4.34470
