15
gdb 17932	3.30655	2.48902	2.02509	3.8759	65.69	-0.2154	-0.0545	0.1608	732.4331	0.117532	-362.525854	-362.519212	-362.518268	-362.556224	25.938
C          0.02800        1.62920       -0.12690
C          0.05350        0.13410       -0.09290
C          0.74960       -0.92550       -0.88130
C          1.78580       -1.54010        0.09340
N          1.01970       -1.61480        1.39180
C          0.03550       -0.86540        1.12240
O         -1.23900       -1.38160        0.84190
C         -0.83550       -0.93390       -0.53530
H          0.95280        2.04830        0.28260
H         -0.07500        1.98860       -1.15600
H         -0.81030        2.02460        0.45580
H          0.97910       -0.79290       -1.93760
H          2.04650       -2.57750       -0.13630
H          2.71420       -0.94960        0.11940
H         -1.62270       -0.99600       -1.27790
