17
gdb 16868	3.94447	1.87243	1.415	3.7728	68.21	-0.2336	0.0354	0.2691	881.8382	0.145309	-363.898593	-363.891842	-363.890897	-363.929522	26.691
O          0.01330       -0.05210       -0.12800
C         -0.03990        1.15920       -0.03580
C         -1.34700        1.94070        0.04590
C         -1.23990        3.11870        1.03000
C         -0.09680        4.03750        0.61380
C          1.19910        4.08820        1.38800
C          1.13040        3.36000        0.06310
N          1.09320        1.93080        0.03810
H         -1.59100        2.31570       -0.95630
H         -2.12630        1.22970        0.32700
H         -2.18190        3.67430        1.06440
H         -1.07260        2.72940        2.04010
H         -0.39280        4.95000        0.10690
H          1.74440        5.02470        1.42860
H          1.27120        3.47630        2.28100
H          1.62800        3.81930       -0.78780
H          1.95980        1.41150        0.03490
