17
gdb 7843	3.88969	1.32913	1.25917	2.1541	65.73	-0.2464	0.0233	0.2696	1041.9939	0.140102	-400.980272	-400.971583	-400.970639	-401.01391	31.342
C         -0.15590        1.33820       -0.17300
C          0.12770       -0.13330       -0.09610
N          0.85190       -0.64460        0.80500
O         -0.52120       -0.78290       -1.12640
C         -0.48450       -2.19020       -1.12270
C         -0.82200       -2.82830       -2.44440
C          0.60650       -2.83060       -1.94720
O          1.57180       -2.02770       -2.54610
H          0.37320        1.85280        0.62750
H          0.16170        1.73810       -1.14130
H         -1.23120        1.52180       -0.08570
H          0.96080       -1.65200        0.69350
H         -0.83100       -2.64000       -0.19580
H         -1.39360       -3.74970       -2.43840
H         -1.05220       -2.14860       -3.25810
H          1.03680       -3.76680       -1.60670
H          1.25320       -1.11760       -2.51500
