17
gdb 14714	9.74423	0.5779	0.55298	5.5765	83.96	-0.2818	-0.0355	0.2463	1934.4015	0.141131	-326.729055	-326.719834	-326.71889	-326.763909	31.564
C         -0.05120        1.56200        0.06800
C          0.00160        0.03330        0.00290
C          0.71470       -0.48100       -1.25110
C          0.76090       -2.02440       -1.30390
C          1.43320       -2.53490       -2.48580
C          1.99700       -2.93440       -3.47760
C          2.63270       -3.39000       -4.59610
N          3.17360       -3.77810       -5.54840
H          0.95570        1.99300        0.07410
H         -0.58380        1.97670       -0.79470
H         -0.56500        1.90220        0.97200
H          0.51020       -0.35620        0.89470
H         -1.01820       -0.37230        0.03230
H          0.20960       -0.10910       -2.15000
H          1.73910       -0.09280       -1.28700
H          1.26870       -2.41060       -0.41010
H         -0.26030       -2.42690       -1.27290
