15
gdb 15733	3.19861	1.64506	1.26505	2.9568	67.75	-0.2471	-0.0031	0.2441	968.2591	0.117079	-362.622453	-362.614242	-362.613298	-362.655804	29.044
O         -0.60100       -0.06650        1.16700
C         -0.22610        1.04010        0.86190
C          1.24060        1.48800        1.00340
C          1.96140        1.36040       -0.25800
C          2.54130        1.24490       -1.30460
N         -1.08480        2.04620        0.44300
C         -1.05780        2.72880       -0.84000
C         -2.19400        1.82570       -0.45160
H          1.27510        2.52500        1.35480
H          1.69710        0.84980        1.76550
H          3.06880        1.13810       -2.22000
H         -1.18600        3.80720       -0.80440
H         -0.35570        2.36900       -1.58570
H         -2.25720        0.84940       -0.92420
H         -3.14280        2.25720       -0.14670
