17
gdb 6666	7.16369	0.75175	0.69889	1.5148	67.58	-0.2635	-0.0367	0.2267	1552.3414	0.139359	-401.015206	-401.00587	-401.004926	-401.050744	31.256
C         -0.19550        1.44060        0.06950
C          0.10590       -0.02240       -0.08320
N          1.27400       -0.44840       -0.32850
O         -1.04030       -0.74870        0.08260
C         -0.95840       -2.16280       -0.03200
C         -2.36380       -2.71990        0.18530
C         -2.36130       -4.22870        0.30930
O         -3.03780       -4.97180       -0.35110
H          0.71940        2.01660       -0.05960
H         -0.93770        1.75280       -0.67180
H         -0.62190        1.63810        1.05780
H          1.32420       -1.46280       -0.40650
H         -0.57930       -2.44130       -1.02430
H         -0.26220       -2.56210        0.71990
H         -2.74730       -2.30810        1.12910
H         -3.03840       -2.42400       -0.62090
H         -1.67100       -4.62490        1.09120
