16
gdb 10652	2.29438	2.01101	1.26436	3.2776	61.99	-0.2539	-0.0419	0.2119	982.9343	0.127247	-420.858124	-420.849254	-420.84831	-420.892018	30.825
C         -0.05410        1.34800       -0.17730
C          0.22980       -0.10930        0.07920
O          1.58470       -0.52620        0.18740
C          0.75120       -0.67000        1.35450
C          1.17700        0.15110        2.54760
O          2.35860       -0.39090        3.11600
C          0.37940       -2.10240        1.66400
O          0.26500       -2.95620        0.82430
H          0.60150        2.00550        0.39600
H          0.09380        1.56610       -1.24010
H         -1.09510        1.58190        0.06840
H         -0.37800       -0.80740       -0.49890
H          1.30500        1.20430        2.27140
H          0.41200        0.10150        3.33080
H          3.02860       -0.39130        2.42230
H          0.19080       -2.30970        2.73920
