10
gdb 21751	5.80802	2.41807	1.70727	4.5044	52.27	-0.2686	-0.0433	0.2253	656.4259	0.063823	-409.618069	-409.61317	-409.612226	-409.64708	18.447
O         -0.05950        1.33810        0.00990
C          1.25260        1.72420       -0.00070
N          2.13180        0.77790       -0.01410
N          1.33260       -0.34790       -0.01260
C          1.33840       -1.71880       -0.02000
N          0.09130       -2.13480       -0.01040
N         -0.78060       -1.04190        0.00400
C          0.01800       -0.01960        0.00180
H          1.45610        2.78250        0.00310
H          2.22280       -2.33200       -0.03170
