20
gdb 8066	3.44546	1.54623	1.32425	1.166	75.44	-0.2567	0.0809	0.3376	1028.7554	0.177151	-348.959701	-348.951621	-348.950677	-348.992118	31.378
C         -0.06810        1.56850       -0.00350
C         -0.19220        0.04130       -0.07600
C          0.62350       -0.55150       -1.21710
C          2.17660       -0.75630       -1.13590
C          1.93680       -1.97480       -0.19870
C          0.87900       -2.07770       -1.34520
O         -0.14550       -2.99490       -1.49420
C          2.03370       -1.73280       -2.33860
H          0.96560        1.87440        0.19050
H         -0.37870        2.03620       -0.94450
H         -0.69330        1.98050        0.79470
H          0.09090       -0.39180        0.88860
H         -1.24360       -0.23220       -0.23130
H          0.30760       -0.09580       -2.16450
H          2.93670        0.01250       -1.01860
H          2.72220       -2.73680       -0.19460
H          1.57600       -1.78010        0.81140
H          0.23740       -3.87750       -1.54170
H          1.74120       -1.29650       -3.29740
H          2.82530       -2.47920       -2.45260
