16
gdb 10555	2.87408	1.64814	1.28329	4.3321	65.4	-0.2657	0.0257	0.2913	978.2415	0.130357	-379.900085	-379.891723	-379.890778	-379.933258	29.886
O         -0.33570        0.59780       -1.09880
C         -0.07050        0.25110        0.25710
C         -1.25840       -0.56620        0.75840
C         -1.33090       -1.95970        0.14350
C         -2.63780       -2.47470       -0.37470
N         -1.57430       -2.11180       -1.30520
C         -0.37300       -2.90170        0.69170
N          0.39330       -3.62550        1.16720
H          0.48560        0.87380       -1.51510
H          0.85470       -0.33530        0.34750
H          0.04280        1.15340        0.87620
H         -1.20960       -0.65070        1.84900
H         -2.17590       -0.02000        0.51290
H         -2.85590       -3.53670       -0.31930
H         -3.49740       -1.82010       -0.25280
H         -1.70180       -1.18240       -1.69820
