19
gdb 19280	3.31987	1.71883	1.37155	2.5581	70.37	-0.2268	0.0688	0.2956	957.7297	0.165609	-365.007524	-364.999347	-364.998403	-365.03988	30.844
C         -0.75660        1.51280        0.00970
C         -0.28340        0.07340       -0.09310
C          0.56670       -0.41980       -1.31030
C          0.94040        0.51920       -2.44330
O         -0.24250        0.76610       -3.19430
C          1.63270       -0.80170       -0.28670
C          2.01580        0.33360        0.57490
N          0.77190       -0.38610        0.89650
H          0.05350        2.23930       -0.10230
H         -1.48850        1.71520       -0.77750
H         -1.22830        1.68560        0.98240
H         -1.14260       -0.58690        0.04890
H          0.10350       -1.30480       -1.75480
H          1.36350        1.45760       -2.05570
H          1.71840        0.04500       -3.06440
H         -0.03240        1.39440       -3.89140
H          2.18010       -1.73920       -0.28110
H          2.79530        0.15620        1.30990
H          1.98000        1.35440        0.20590
