20
gdb 18124	3.565	2.02625	1.54514	1.4946	73.14	-0.2399	0.0779	0.3179	886.4057	0.181097	-349.031993	-349.025215	-349.024271	-349.063055	27.175
C          0.00870        1.48890        0.10480
C          1.46700        1.96840        0.00980
C          2.13900        0.95770       -0.94520
C          3.57440        0.53760       -0.58000
C          3.33360       -0.68730        0.31050
O          2.22310       -1.35500       -0.27200
C          1.32580       -0.36980       -0.78540
C          0.15110       -0.04070        0.16730
H         -0.53010        1.90760        0.95980
H         -0.54060        1.78180       -0.79900
H          1.56500        3.00220       -0.33350
H          1.93370        1.91380        1.00210
H          2.08100        1.32550       -1.97280
H          4.13050        0.24060       -1.47460
H          4.13740        1.32850       -0.07600
H          4.17090       -1.39010        0.34000
H          3.11310       -0.37970        1.34670
H          0.96000       -0.75400       -1.74280
H          0.43350       -0.35380        1.17920
H         -0.76550       -0.57650       -0.09310
