16
gdb 7128	7.3267	0.86374	0.7801	3.2126	63.72	-0.2534	-0.0215	0.2318	1375.3176	0.130034	-417.084339	-417.075441	-417.074497	-417.118679	30.476
O          0.02910        1.40870       -0.04010
C          0.20410       -0.00210       -0.02590
C         -1.18960       -0.61120        0.02240
C         -1.18550       -2.12110        0.04320
N         -0.10980       -2.79060        0.01710
N         -2.49640       -2.66090        0.09340
C         -2.84370       -3.98790        0.12220
O         -2.07500       -4.92280        0.10920
H          0.90010        1.81410       -0.07430
H          0.73230       -0.35960       -0.91960
H          0.78290       -0.33540        0.84570
H         -1.71590       -0.23300        0.90950
H         -1.76580       -0.25760       -0.84360
H         -0.30120       -3.79240        0.03690
H         -3.25990       -2.00070        0.10980
H         -3.94280       -4.11700        0.15990
