12
gdb 3952	7.78453	1.97452	1.59065	3.3514	51.43	-0.2479	0.0036	0.2514	715.1474	0.091656	-356.683566	-356.677201	-356.676257	-356.714708	21.929
O         -0.01020        1.42320        0.00890
C          0.00320        0.00450        0.00210
C         -1.41520       -0.46350        0.01220
C         -2.57000        0.28000        0.02340
N         -3.55030       -0.65540        0.02940
N         -3.04780       -1.90200        0.02070
N         -1.75020       -1.78510        0.01100
H          0.90020        1.73090        0.00190
H          0.51420       -0.39330       -0.88860
H          0.52950       -0.40180        0.87990
H         -2.75560        1.33910        0.02800
H         -4.54940       -0.52720        0.03840
