20
gdb 6568	2.91858	1.97379	1.48641	1.2576	75.58	-0.2529	0.0822	0.3351	942.5769	0.176089	-348.96759	-348.959196	-348.958252	-348.999587	32.816
C         -0.13900        1.57440        0.07410
C          0.04090        0.06480        0.03020
C          0.87030       -0.65030       -1.09950
C          0.58110       -0.65540       -2.57540
C          2.17270       -0.14840       -0.39740
C          1.22510       -0.64140        0.73850
O          1.41800       -0.58290        2.10760
C          0.92770       -1.88750       -0.14980
H          0.78180        2.13080       -0.11770
H         -0.87960        1.89400       -0.66760
H         -0.50820        1.88100        1.05840
H         -0.92100       -0.42710        0.22160
H          0.59220        0.36090       -2.98460
H          1.32690       -1.24270       -3.12230
H         -0.40370       -1.08850       -2.78290
H          3.07050       -0.74900       -0.57590
H          2.40120        0.91700       -0.44780
H          2.21830       -1.07280        2.32480
H         -0.01580       -2.40920        0.03520
H          1.75410       -2.58580       -0.31530
