13
gdb 11634	3.40778	1.88162	1.54177	3.4774	60.91	-0.2589	-0.0512	0.2077	821.0462	0.094569	-398.538465	-398.531632	-398.530688	-398.569928	24.678
O         -0.69580        0.87580        0.53410
C          0.29160        0.82470       -0.15650
C          1.39650        1.81480       -0.07870
C          1.84350        2.73470        1.09500
C          2.90590        2.96100       -0.02950
N          2.85750        1.46930       -0.37070
C          1.70960        3.07250       -0.98530
O          1.24900        3.72490       -1.85450
H          0.43750        0.03830       -0.92810
H          1.19750        3.56090        1.40180
H          2.23330        2.17750        1.95130
H          3.83980        3.51750        0.00640
H          3.21580        0.96410        0.44790
