17
gdb 18737	2.99497	2.39119	1.57007	3.5406	68.15	-0.2354	-0.0005	0.2349	840.3843	0.142824	-363.858914	-363.851754	-363.85081	-363.890208	27.453
C         -0.30240        1.54590        0.00710
C          0.01210        0.06330       -0.00730
C          1.13980       -0.47760       -0.94340
C          1.72860       -1.21910        0.28730
C          2.90870       -0.59000        1.05970
C          1.81350        0.25250        1.75910
O          1.79680        1.22290        2.46030
N          0.75420       -0.50170        1.18520
H          0.60070        2.15230        0.11530
H         -0.79560        1.82350       -0.93050
H         -0.97370        1.79530        0.83390
H         -0.91180       -0.51170       -0.12650
H          0.81830       -1.10360       -1.77800
H          1.79270        0.31370       -1.32510
H          1.66220       -2.30850        0.27380
H          3.45790       -1.27280        1.71310
H          3.62130        0.00550        0.48440
