18
gdb 17919	3.22495	2.17991	2.07798	1.4095	66.1	-0.2414	0.0868	0.3283	780.4041	0.1562	-384.941512	-384.934859	-384.933915	-384.971961	26.56
C         -0.09530        1.53780        0.03240
C          0.05060        0.02070        0.00860
C          1.08160       -0.59830       -0.95920
C          2.40200       -0.07990       -0.37490
O          2.14390       -0.08220        1.04660
C          0.81330       -0.60450        1.19460
C          0.84190       -2.07830        0.77480
O          1.00240       -1.99910       -0.65980
H          0.83540        2.02720        0.32880
H         -0.39140        1.92310       -0.94910
H         -0.86810        1.83660        0.74800
H         -0.91930       -0.46190       -0.14430
H          0.94030       -0.45570       -2.03040
H          3.22850       -0.75820       -0.61110
H          2.66150        0.93400       -0.70410
H          0.46630       -0.39950        2.20730
H          1.69120       -2.60640        1.22140
H         -0.08500       -2.61470        1.01610
