16
gdb 13830	4.60448	1.46729	1.13503	4.0785	70.47	-0.1977	-0.0045	0.1933	1011.1558	0.132784	-379.967039	-379.959375	-379.958431	-379.99911	28.501
N         -0.01970        1.35920        0.16960
C          0.05230       -0.02070        0.12520
O          1.12520       -0.60240        0.20690
C         -1.23610       -0.71210        0.02910
C         -1.34690       -2.05120       -0.07640
N         -2.64620       -2.48240       -0.24010
C         -3.53820       -1.36100        0.11300
C         -2.63250       -0.11250       -0.06060
H          0.86160        1.83810        0.06740
H         -0.83290        1.83450       -0.18540
H         -0.52740       -2.75740       -0.08790
H         -2.88880       -3.39940        0.10470
H         -4.42230       -1.34480       -0.52920
H         -3.87370       -1.44900        1.15600
H         -2.84060        0.64390        0.70270
H         -2.80620        0.35840       -1.03940
