13
gdb 578	12.91115	1.97178	1.85558	3.3988	52.29	-0.2588	0.0211	0.2799	666.8787	0.107686	-286.46722	-286.46095	-286.460006	-286.497552	21.614
N         -0.08880        1.21450       -0.01860
C         -0.18910       -0.02340        0.20300
O         -1.01820       -0.77660       -0.55290
C         -1.02130       -2.15540       -0.26890
C         -1.83570       -2.65990        0.89240
C         -2.30620       -2.86630       -0.53270
H          0.56950        1.63040        0.63710
H          0.33750       -0.59850        0.97610
H         -0.08610       -2.65380       -0.51260
H         -1.46310       -3.51010        1.45260
H         -2.36110       -1.91770        1.48240
H         -3.13140       -2.25280       -0.87460
H         -2.26450       -3.86000       -0.96300
