15
gdb 18451	6.81747	1.2052	1.10697	3.5999	64.02	-0.2445	0.0016	0.2461	1032.9593	0.117958	-399.761074	-399.753645	-399.752701	-399.792905	27.157
O         -0.26100        1.42210        0.05280
C          0.00580        0.04100        0.00410
C          0.34270       -0.61100        1.40130
C         -0.98750       -1.37240        1.33140
C         -1.31750       -0.73660        0.00450
N         -0.96510       -2.14710        0.10240
C         -1.83760       -3.18800       -0.16220
O         -2.16000       -4.04140        0.62850
H          0.57220        1.88680        0.18080
H          0.68710       -0.22080       -0.81560
H          1.24330       -1.22410        1.47810
H          0.33660        0.16150        2.17330
H         -1.64550       -1.67590        2.13530
H         -2.26930       -0.41620       -0.40230
H         -2.14840       -3.19560       -1.22470
