15
gdb 7299	3.26057	1.56295	1.11939	3.6617	63.1	-0.2644	0.0129	0.2772	1012.46	0.11713	-399.802427	-399.793894	-399.79295	-399.835594	31.412
N         -1.04920        1.08070       -0.05730
C         -0.28420       -0.03030        0.02340
O          0.93720       -0.01420        0.05590
C         -1.01630       -1.38850        0.04110
O         -0.05420       -2.40140        0.06020
C         -1.94690       -1.55630        1.27480
C         -3.16600       -0.75980        1.22100
C         -4.16570       -0.09440        1.13820
H         -0.59080        1.97530        0.01210
H         -2.04850        1.03040        0.07140
H         -1.63610       -1.46090       -0.86560
H          0.79670       -1.92540        0.07240
H         -2.20430       -2.62000        1.32070
H         -1.37850       -1.33240        2.18510
H         -5.06630        0.46710        1.09120
