18
gdb 13864	4.19541	1.55565	1.18868	3.9087	68.77	-0.227	0.0634	0.2904	1009.1781	0.156655	-381.177358	-381.169496	-381.168551	-381.20989	29.219
N         -0.01160        1.29880       -0.13220
C          0.01170       -0.06960        0.12940
O          1.05660       -0.68220        0.27990
N         -1.21900       -0.67320        0.15680
C         -2.47710       -0.04850       -0.25320
C         -3.48930       -1.20640       -0.21200
C         -2.62470       -2.44540       -0.49820
C         -1.31740       -2.13340        0.24100
H          0.87550        1.73200        0.07560
H         -0.81020        1.83160        0.17660
H         -2.77090        0.76360        0.42530
H         -2.39220        0.37850       -1.26220
H         -3.93040       -1.27940        0.78800
H         -4.30490       -1.06700       -0.92510
H         -3.08660       -3.37710       -0.16360
H         -2.43480       -2.53230       -1.57380
H         -0.43130       -2.58830       -0.20470
H         -1.36520       -2.46070        1.28880
