18
gdb 6167	3.56561	1.55579	1.35704	3.1813	69.29	-0.2424	0.0445	0.2869	986.397	0.152708	-381.146501	-381.137664	-381.13672	-381.179479	32.883
C         -0.23650        1.54500       -0.20820
C          0.14320        0.08870       -0.03000
C         -0.81330       -0.72520        0.82000
C          0.89710       -0.61440       -1.12630
N          1.57450       -0.15680        0.08020
C          2.15040       -0.99610        1.04070
N          3.07000       -1.88070        0.51160
O          1.89320       -0.93130        2.22510
H          0.50960        2.07230       -0.80770
H         -1.20990        1.63250       -0.70270
H         -0.30540        2.04340        0.76440
H         -1.82710       -0.64840        0.41330
H         -0.53270       -1.78060        0.84930
H         -0.82050       -0.35750        1.84920
H          0.73910       -1.68470       -1.24090
H          1.15350       -0.08750       -2.04290
H          3.47760       -1.66090       -0.38360
H          3.69770       -2.28020        1.19180
