19
gdb 17280	4.20362	1.32239	1.12224	2.6189	72.08	-0.2202	0.0942	0.3144	1097.9815	0.164496	-365.002034	-364.993637	-364.992693	-365.035421	30.631
C         -0.20970        1.53670        0.30820
N         -0.00170        0.09940        0.19060
C          1.31690       -0.36390       -0.22190
C          0.82690       -0.60820        1.16540
C          1.48270        0.05390        2.36490
C          0.57070        0.10740        3.57040
C          0.62870        1.19590        4.55300
O         -0.42710        1.13210        3.59190
H          0.70590        2.11370        0.51530
H         -0.62410        1.90240       -0.63700
H         -0.92390        1.73650        1.11040
H          1.34510       -1.16440       -0.95750
H          2.10170        0.38470       -0.33920
H          0.44030       -1.60340        1.39050
H          2.37550       -0.52670        2.63570
H          1.82380        1.06490        2.12420
H          0.20400       -0.86220        3.91470
H          0.33320        1.01640        5.58580
H          1.34140        2.00760        4.41040
