10
gdb 23678	3.85736	1.93368	1.28801	1.1173	51.49	-0.2747	-0.0651	0.2096	800.8427	0.060907	-462.759686	-462.754119	-462.753175	-462.789643	20.673
F          0.03090        0.05960        0.00310
C         -0.00740        1.38110        0.01040
C         -1.23770        2.03580        0.03070
N         -1.28300        3.36640        0.03810
C         -0.12650        4.02610        0.02560
C          1.07630        3.32230        0.00540
F          2.22130        3.98310       -0.00690
N          1.14940        2.00830       -0.00230
H         -2.16880        1.48020        0.04060
H         -0.14220        5.11030        0.03140
