17
gdb 4112	3.87215	1.36681	1.10525	0.8625	68.35	-0.2452	0.0022	0.2475	1066.4433	0.14023	-400.94407	-400.935451	-400.934507	-400.977141	31.743
C          0.36690        1.63220       -0.07420
C          0.11490        0.13080        0.08380
C          0.66180       -0.76600       -1.09450
O          0.94050       -0.17590       -2.33500
C          1.84310       -1.23580       -0.18650
C          1.10970       -0.59310        0.97280
N          1.16830       -0.65500        2.23590
O          2.23150       -1.48000        2.65220
H          1.42550        1.85430       -0.25380
H         -0.21320        2.03350       -0.91080
H          0.07890        2.16380        0.83660
H         -0.93620       -0.04170        0.33350
H         -0.02470       -1.58850       -1.30800
H          1.56990        0.53990       -2.19960
H          2.04340       -2.30710       -0.11330
H          2.78620       -0.72810       -0.42390
H          2.14280       -1.45530        3.61100
