17
gdb 16871	3.98081	1.79304	1.35371	3.2947	67.33	-0.2332	-0.0096	0.2236	900.6	0.144175	-363.86914	-363.862273	-363.861329	-363.900502	26.794
O         -0.01550        0.22590       -0.93840
C         -0.05130        1.16960       -0.18500
C         -1.36060        1.89330        0.13540
C         -1.29130        2.75980        1.40400
C         -0.13170        3.73810        1.29570
N          0.98890        3.55390        2.23380
C          1.16210        3.18070        0.81600
C          1.21170        1.69310        0.50530
H         -1.58540        2.52710       -0.73410
H         -2.15620        1.14420        0.17940
H         -2.23860        3.28640        1.55500
H         -1.13490        2.12880        2.28460
H         -0.38120        4.75440        1.00020
H          1.44220        4.44590        2.41530
H          1.79290        3.81780        0.20180
H          1.30370        1.14340        1.45150
H          2.07190        1.41670       -0.10860
