12
gdb 9978	2.66258	1.57711	1.04022	3.7015	59.58	-0.3042	-0.075	0.2293	1032.7939	0.08217	-377.549596	-377.541524	-377.540579	-377.583211	26.71
O         -0.40660        0.63950       -0.71870
C          0.19460        0.99490        0.25450
C          1.35760        2.00910        0.19370
C          1.42060        2.69700       -1.18990
C          2.67750        3.40550       -1.40560
N          3.68090        3.95260       -1.57170
C          1.24430        2.95000        1.30660
N          1.10840        3.67480        2.19580
H         -0.02250        0.60780        1.26950
H          2.27380        1.42020        0.34990
H          1.29180        1.92660       -1.95510
H          0.58330        3.39280       -1.29720
