16
gdb 19257	2.95491	2.23621	1.75491	3.2065	64.04	-0.2505	-0.0388	0.2117	798.4748	0.130635	-383.714898	-383.707808	-383.706864	-383.746065	27.173
O          0.51830        1.21290        0.12080
C          0.11200       -0.11230       -0.03590
C         -1.37530       -0.48940        0.02010
C         -2.12730       -0.00070       -1.18360
C         -1.25670       -1.21600       -1.32430
C          0.23590       -0.80730       -1.45060
C          0.53490        0.04940       -2.64230
O          0.36640        1.25120       -2.67500
H          0.31600        1.67610       -0.70470
H          0.67090       -0.70230        0.69670
H         -1.89100       -0.81400        0.91580
H         -3.19280       -0.20510       -1.16740
H         -1.86310        0.93220       -1.67180
H         -1.64170       -2.18530       -1.61290
H          0.90250       -1.67390       -1.44150
H          0.89550       -0.48290       -3.54960
