13
gdb 14810	2.54909	2.23272	1.32996	2.4913	63.5	-0.2785	-0.0031	0.2754	882.1625	0.094581	-361.410349	-361.402816	-361.401872	-361.44289	26.485
C         -0.16480       -1.22010       -0.16410
C         -0.09870       -0.02800       -0.03310
C         -0.01530        1.41210        0.11350
O         -0.08010        1.86670        1.48610
C          1.27980        2.33480        1.47160
C          1.40340        2.07180       -0.05200
C          2.50820        1.25670       -0.51650
N          3.40000        0.61750       -0.87910
H         -0.21740       -2.27510       -0.27950
H         -0.78580        1.90140       -0.49310
H          1.36180        3.38190        1.77720
H          1.93940        1.71430        2.08760
H          1.34890        2.98590       -0.64590
