18
gdb 19230	3.00993	1.9742	1.52424	0.8255	76.73	-0.2524	0.0488	0.3012	903.024	0.153094	-310.608085	-310.600225	-310.599281	-310.639904	30.469
C         -0.18710        1.57870       -0.11540
C          0.03420        0.07470       -0.06390
C          0.71220       -0.63030       -1.24680
C          2.15720       -0.23190       -1.37670
C          1.77370       -1.23410       -0.32940
C          1.15480       -0.52710        0.89490
C          1.99630        0.38590        1.64620
C          2.68830        1.15960        2.25500
H          0.73540        2.11910       -0.34310
H         -0.92550        1.82890       -0.88520
H         -0.55880        1.95300        0.84400
H         -0.91010       -0.42370        0.17520
H          0.18160       -1.10380       -2.06440
H          2.66830       -0.64450       -2.24060
H          2.50330        0.75680       -1.08870
H          2.17720       -2.23870       -0.30910
H          0.70070       -1.24970        1.57900
H          3.30340        1.83270        2.79900
