17
gdb 14245	3.93679	1.74544	1.56841	2.7776	69.15	-0.2582	0.0269	0.2851	879.3421	0.143139	-363.851686	-363.844544	-363.8436	-363.883087	27.365
C          0.42360        1.54830        0.08310
C          0.12590        0.05840        0.01640
C          0.96100       -0.84130       -0.95560
C          1.32170       -1.79410        0.23090
C          0.57790       -0.83300        1.19760
O          1.86270       -0.42700        1.76960
C          2.54960       -1.33670        0.97780
N          3.76890       -1.62450        0.94560
H          1.47600        1.72600        0.32090
H          0.20300        2.03000       -0.87510
H         -0.18140        2.03980        0.85270
H         -0.94390       -0.10530       -0.15460
H          0.36640       -1.32160       -1.73450
H          1.82460       -0.36280       -1.42270
H          1.14500       -2.86170        0.12690
H         -0.12370       -1.11770        1.98160
H          4.29950       -1.07160        1.62120
