19
gdb 9277	5.09904	0.88419	0.8504	3.3209	69.3	-0.2505	0.0327	0.2833	1367.3836	0.163995	-402.222543	-402.212698	-402.211754	-402.258321	33.892
C          0.13710        1.49960        0.17120
C          0.01150       -0.01540       -0.01890
C          0.68330       -0.47320       -1.31460
O          0.00800        0.13790       -2.40340
C          0.59040       -0.80680        1.16610
N         -0.08610       -0.53460        2.42370
C          0.53450        0.00180        3.50900
O          1.70610        0.30850        3.57050
H          1.18680        1.78850        0.29940
H         -0.25870        2.02290       -0.70160
H         -0.40880        1.83500        1.05700
H         -1.05430       -0.27070       -0.11590
H          1.74870       -0.18930       -1.29490
H          0.63790       -1.57220       -1.39020
H          0.48420       -0.07350       -3.21130
H          0.54300       -1.88320        0.95280
H          1.63990       -0.54680        1.32970
H         -1.06880       -0.74550        2.49960
H         -0.16800        0.12950        4.35700
