16
gdb 14904	4.56884	1.53944	1.25551	1.5488	72.6	-0.251	0.0123	0.2633	965.5758	0.130542	-346.567192	-346.559874	-346.55893	-346.598749	27.971
C          0.00220       -1.20210        0.00550
C         -0.01640       -0.00190        0.03810
C         -0.01160        1.46200        0.02990
O         -0.72790        1.91480        1.17140
C         -0.56300        3.30620        1.40060
C          0.88460        3.63730        1.76600
C          1.81570        2.97680        0.78490
C          1.40640        2.00180       -0.02060
H          0.01200       -2.26390       -0.01150
H         -0.54190        1.79460       -0.88400
H         -0.86120        3.87770        0.50610
H         -1.25350        3.55940        2.20930
H          1.03010        4.72500        1.76040
H          1.10590        3.30080        2.78780
H          2.84400        3.32540        0.73930
H          2.06400        1.54210       -0.75130
