18
gdb 10097	2.93435	1.22443	0.91483	2.2153	74.86	-0.2522	-0.0281	0.2242	1253.0467	0.150144	-347.785233	-347.77567	-347.774725	-347.820166	33.48
C          0.87350       -0.31240       -1.36560
C         -0.02630       -0.15630       -0.13950
C          0.63210       -0.63020        1.17850
C         -0.26720       -0.32060        2.40200
C         -0.40970        1.16550        2.64790
O         -1.44820        1.73770        2.85140
C          0.96350       -2.05270        1.13870
C          1.20940       -3.22930        1.11210
H          1.15830       -1.35810       -1.51260
H          0.36200        0.03130       -2.26940
H          1.79330        0.27380       -1.25990
H         -0.31120        0.89610       -0.01880
H         -0.95840       -0.71580       -0.28110
H          1.57110       -0.06930        1.30490
H         -1.25950       -0.76540        2.28990
H          0.19690       -0.75270        3.29880
H          0.55900        1.72160        2.64410
H          1.43930       -4.26580        1.08780
