13
gdb 14294	3.94635	1.97932	1.90844	3.7788	54.41	-0.2494	0.0441	0.2935	736.3144	0.095712	-435.716645	-435.709987	-435.709043	-435.747762	24.509
O          0.13240        1.25060       -0.30860
C         -0.00460       -0.10840       -0.08330
C         -0.50110       -0.61940        1.25570
O         -1.05760        0.36400        2.09360
C         -2.16830        0.89280        1.49900
N         -2.81570        1.83330        2.01590
O         -2.42580        0.25030        0.31800
C         -1.40420       -0.67970        0.05680
H          0.59550        1.64430        0.43960
H          0.70760       -0.75590       -0.59560
H         -0.06310       -1.45030        1.79320
H         -3.60230        2.08900        1.42470
H         -1.74450       -1.56730       -0.45950
