15
gdb 19342	5.09596	1.69472	1.52428	3.2762	66.36	-0.2365	-0.0317	0.2048	834.2338	0.118543	-362.582853	-362.576241	-362.575297	-362.613484	25.613
O         -0.89160        1.20930       -0.01000
C          0.26070        0.84750       -0.10020
C          1.42070        1.73480        0.05620
C          1.30980        3.09850        0.70370
C          1.71540        3.03330       -0.72390
C          3.12730        2.46700       -0.93950
C          3.84440        2.06820        0.29150
N          2.79750        1.17620       -0.24070
H          0.53400       -0.20350       -0.33400
H          0.26860        3.36480        0.85430
H          1.97670        3.41970        1.49480
H          1.11110        3.43400       -1.52650
H          3.59690        2.45380       -1.91720
H          4.83630        1.64690        0.15540
H          3.71190        2.58370        1.23530
