13
gdb 1841	6.75586	2.11611	1.62973	5.2991	60.68	-0.2142	-0.0008	0.2134	719.0217	0.103717	-340.662316	-340.65611	-340.655166	-340.692071	23.596
N          0.06060        1.34090        0.15470
C         -0.04190       -0.02190        0.04780
C         -1.11850       -0.82810        0.03210
C         -0.67040       -2.21210       -0.01380
N         -1.37790       -3.26250       -0.04120
O          0.71950       -2.21740       -0.03060
C          1.19790       -0.88210        0.01850
H          0.89690        1.76660       -0.21490
H         -0.77360        1.87420       -0.03750
H         -2.16190       -0.55380        0.04920
H         -0.78220       -4.09030       -0.07610
H          1.82460       -0.68000       -0.86250
H          1.81770       -0.73800        0.91410
