18
gdb 15076	2.7381	1.49157	1.04839	3.0352	68.44	-0.243	-0.018	0.225	1125.7961	0.151872	-384.926774	-384.917785	-384.916841	-384.96125	31.615
O          0.12600        1.36890       -0.07540
C         -0.00530       -0.03010        0.10730
C         -1.45600       -0.51330       -0.03650
C         -2.03190       -0.03290       -1.35850
O         -3.05940        0.58080       -1.47830
C         -1.54640       -2.03040        0.03690
C         -1.68630       -2.72010        1.37310
C         -2.84550       -2.69900        0.41000
H         -0.41660        1.81110        0.58590
H          0.61590       -0.48720       -0.67200
H          0.39540       -0.36240        1.07640
H         -2.07440       -0.07550        0.75790
H         -1.42470       -0.32180       -2.24910
H         -0.93960       -2.54640       -0.70370
H         -1.15700       -3.65400        1.52610
H         -1.75170       -2.09730        2.25940
H         -3.68950       -2.05850        0.64250
H         -3.11270       -3.61920       -0.09690
