20
gdb 19019	4.31884	1.5943	1.58836	0.1481	77.92	-0.2299	0.0878	0.3177	935.5881	0.178604	-311.8185	-311.811458	-311.810514	-311.849228	28.87
C         -0.05440        1.44260        0.00320
C          0.05330       -0.06840        0.03510
C          1.41370       -0.66040       -0.21350
C          0.79340       -0.67480        1.19590
C          0.78180       -2.22050        1.18400
C         -0.46630       -2.97590        0.63210
C          0.16430       -2.96120       -0.80090
C          1.40870       -2.20590       -0.24040
H          0.84980        1.91190        0.40590
H         -0.19050        1.80880       -1.02030
H         -0.90370        1.79220        0.60030
H         -0.82600       -0.57330       -0.35700
H          2.21860       -0.04300       -0.59800
H          1.04890       -0.07020        2.05970
H          1.30880       -2.67670        2.02260
H         -0.57500       -3.98250        1.04370
H         -1.42390       -2.46030        0.74400
H          0.40180       -3.95970       -1.17640
H         -0.40400       -2.43640       -1.57360
H          2.38640       -2.65170       -0.42620
