13
gdb 23904	4.55804	0.87321	0.84996	3.3213	55.53	-0.289	0.0132	0.3022	1340.073	0.09051	-492.943469	-492.935081	-492.934137	-492.978068	28.378
C         -0.04180        1.55910        0.05010
C          0.01020        0.02120       -0.01150
C          0.68700       -0.47700       -1.20140
C          1.24880       -0.87000       -2.18850
C          1.92870       -1.35030       -3.38400
F          1.96470       -2.69080       -3.42480
F          1.31430       -0.93270       -4.50140
F          3.19660       -0.91440       -3.43840
H          0.96560        1.98270        0.05690
H         -0.57570        1.96530       -0.81270
H         -0.55820        1.87900        0.95900
H          0.52070       -0.37180        0.87630
H         -1.00690       -0.38880        0.01460
