18
gdb 7558	3.5167	1.27558	1.098	1.6598	65.42	-0.2394	0.0762	0.3156	1134.0756	0.151094	-422.037588	-422.028409	-422.027465	-422.071392	33.22
C          0.02620        1.33380        0.08430
O         -0.06470       -0.06150        0.25020
C         -1.32430       -0.58780       -0.13960
C         -1.19900       -2.08700       -0.07100
O         -0.17880       -2.59330       -0.88190
C         -1.49820       -2.80360        1.23780
C         -2.41170       -2.94390        0.03480
O         -3.65580       -2.30380        0.01700
H          1.02960        1.63670        0.39360
H         -0.12980        1.63110       -0.96450
H         -0.71210        1.86570        0.70430
H         -2.12940       -0.22500        0.51270
H         -1.55720       -0.28060       -1.17190
H          0.60690       -2.07760       -0.65940
H         -0.87430       -3.65070        1.49830
H         -1.85250       -2.20190        2.06820
H         -2.36110       -3.88630       -0.51000
H         -4.23320       -2.76510        0.63420
