20
gdb 14517	3.45349	1.94797	1.56315	1.0459	75.1	-0.2478	0.0913	0.3391	907.4807	0.176805	-348.94245	-348.934418	-348.933474	-348.974941	30.827
C         -0.03720        1.11360       -0.34390
O          0.41040       -0.21260       -0.16820
C          0.81900       -0.55450        1.14700
C          2.17880        0.08110        1.42550
C         -0.30440       -0.58980        2.24980
C         -0.95540       -1.75370        1.43910
C          0.57320       -2.06410        1.46090
C          0.52890       -1.68880        2.97090
H          0.75830        1.85580       -0.18660
H         -0.38310        1.19650       -1.37750
H         -0.87430        1.35700        0.32660
H          2.10100        1.17190        1.47480
H          2.63240       -0.25270        2.35860
H          2.86040       -0.16600        0.60580
H         -0.80830        0.25860        2.71680
H         -1.58420       -2.43480        2.01750
H         -1.39390       -1.51060        0.47430
H          1.08450       -2.91200        1.00230
H          1.45470       -1.40050        3.46770
H         -0.04970       -2.36840        3.60050
