17
gdb 1726	4.44585	2.08002	1.8923	2.1778	60.05	-0.2459	0.0699	0.3158	760.4365	0.14684	-346.821466	-346.813724	-346.81278	-346.853274	27.731
C         -0.02050        1.42910        0.05370
O         -0.15200        0.03260       -0.11040
C          0.61390       -0.53370       -1.15060
C          0.22270       -0.03130       -2.53600
C          2.14660       -0.63070       -0.90160
O          2.10420       -2.06610       -1.02460
C          0.66160       -2.06900       -1.01470
H          1.03140        1.73350        0.16280
H         -0.46090        1.99580       -0.77810
H         -0.55370        1.68990        0.97090
H          0.46190        1.02830       -2.66880
H          0.76550       -0.59160       -3.30280
H         -0.85110       -0.16750       -2.69960
H          2.81110       -0.17420       -1.64440
H          2.44260       -0.31100        0.10640
H          0.25020       -2.41580       -0.05900
H          0.24290       -2.65790       -1.83840
