17
gdb 2245	4.4427	2.59907	2.1185	1.2444	63.15	-0.2494	0.0836	0.3331	683.5982	0.150087	-309.719641	-309.713259	-309.712315	-309.749314	25.709
O         -0.06530        1.40680       -0.19280
C         -0.01310        0.02970        0.03780
C         -0.25770       -0.92160       -1.10800
C         -1.28680       -0.76890        0.00200
C         -1.25570       -1.77450        1.14240
C          0.23690       -1.85600        1.55110
C          0.82680       -0.46960        1.20690
H          0.75080        1.66460       -0.63490
H         -0.51640       -0.45770       -2.05350
H          0.31840       -1.83780       -1.19530
H         -2.21980       -0.27970       -0.25340
H         -1.86020       -1.39270        1.97400
H         -1.66270       -2.75470        0.87140
H          0.36790       -2.11560        2.60470
H          0.74350       -2.63470        0.97200
H          1.90010       -0.51370        0.98740
H          0.68960        0.23440        2.03620
