15
gdb 12433	3.6575	2.01562	1.3929	4.0171	70.45	-0.2342	-0.0541	0.1802	860.3562	0.121509	-362.703453	-362.69668	-362.695735	-362.734428	25.891
O          0.01770       -0.03650        0.40160
C         -0.00980        1.15760        0.14370
N         -1.19070        1.82110       -0.06310
C         -1.35210        3.26830       -0.06870
C         -0.73640        3.91300       -1.28550
C          0.56460        3.77290       -1.56920
C          1.50780        2.99640       -0.77660
C          1.25660        1.92800        0.00430
H         -2.00880        1.24000        0.04290
H         -2.42260        3.47780       -0.02490
H         -0.90220        3.70080        0.83850
H         -1.37130        4.51710       -1.92620
H          0.97900        4.29430       -2.42830
H          2.54830        3.30450       -0.86350
H          2.08540        1.42990        0.49690
