16
gdb 15323	3.08144	1.32663	0.99616	0.5975	80.41	-0.2293	0.036	0.2653	1187.8015	0.127984	-309.399503	-309.390533	-309.389589	-309.434789	31.535
C          0.10660        1.51170       -0.01940
C          0.06260        0.05710       -0.02480
C          0.01810       -1.14670       -0.02500
C         -0.01990       -2.57820       -0.04230
C         -0.39490       -3.36210        1.19550
C         -1.35810       -3.34030        0.02810
C         -2.60220       -2.63860        0.11660
C         -3.65750       -2.06510        0.17820
H          0.89580        1.88810        0.64120
H          0.29690        1.90830       -1.02290
H         -0.84390        1.93260        0.32670
H          0.71370       -3.04980       -0.69030
H          0.13610       -4.28610        1.39430
H         -0.67470       -2.78990        2.07110
H         -1.38710       -4.24160       -0.57740
H         -4.58540       -1.55290        0.23470
