15
gdb 5643	3.50147	1.89041	1.34233	4.606	62.36	-0.2131	0.0227	0.2358	906.3867	0.119457	-399.855468	-399.848035	-399.847091	-399.888093	26.753
C         -0.01300        1.57510        0.12390
C         -0.04010        0.05570       -0.05220
N         -1.37980       -0.50400        0.01630
C         -2.15980       -0.72030        1.15280
C         -3.32990       -1.21300        0.73080
O         -3.32390       -1.31210       -0.64300
C         -2.10030       -0.86280       -1.10410
O         -1.77930       -0.81790       -2.26270
H          1.01630        1.94150        0.06330
H         -0.59900        2.06340       -0.65940
H         -0.42170        1.87190        1.09500
H          0.34950       -0.22260       -1.03440
H          0.58020       -0.43420        0.70660
H         -1.80160       -0.51150        2.14630
H         -4.22210       -1.53080        1.23970
