16
gdb 13644	5.40367	0.92797	0.84237	1.5768	89.61	-0.2276	-0.0109	0.2167	1350.5081	0.128596	-309.409234	-309.400719	-309.399774	-309.442354	31.304
C         -0.11970        1.50600       -0.12130
C          0.01210        0.00630       -0.00290
C          1.32870       -0.67580       -0.21510
C          0.72850       -0.63410        1.18890
C          1.33040        0.16430        2.20710
C          1.83200        0.82770        3.08960
C          2.40030        1.57570        4.07220
C          2.90490        2.23990        4.94650
H          0.77120        2.01340        0.25890
H         -0.25760        1.79930       -1.16750
H         -0.97910        1.87390        0.44860
H         -0.86210       -0.55220       -0.32700
H          1.35640       -1.63930       -0.71140
H          2.19820       -0.05110       -0.38680
H          0.30070       -1.56730        1.54490
H          3.34920        2.82310        5.71400
