16
gdb 8901	2.63175	1.57412	1.05818	2.4202	57.86	-0.2723	-0.0393	0.233	1075.5418	0.127783	-458.014739	-458.00565	-458.004706	-458.048815	32.028
O          0.42950        0.37650        0.97760
C         -0.07010        0.17050       -0.33000
C         -1.46720       -0.50050       -0.36470
O         -1.96970       -0.43910       -1.67120
C         -1.40750       -1.95090        0.10490
O         -1.64270       -2.84170       -0.69190
C         -1.06780       -2.29070        1.53890
O         -1.02410       -3.67190        1.74960
H         -0.06160        1.09980        1.38050
H         -0.15500        1.10570       -0.89740
H          0.65400       -0.46560       -0.84860
H         -2.12580        0.05720        0.32280
H         -2.05610       -1.36160       -1.96100
H         -0.11360       -1.80730        1.79210
H         -1.82780       -1.80880        2.17920
H         -1.29170       -4.07520        0.91040
