15
gdb 18507	5.76757	1.25511	1.17592	2.5854	62.85	-0.249	0.0266	0.2756	1003.4631	0.119191	-399.781271	-399.77414	-399.773195	-399.813481	25.976
O         -0.15960        0.00310        0.26210
C         -0.03350        1.19840        0.09980
N          1.14570        1.84010       -0.12250
C          2.41730        1.17070       -0.18070
C          3.26970        1.28640       -1.50730
C          4.34900        1.99320       -0.68430
O          3.73180        3.14860       -0.09500
C          3.56540        1.88030        0.55620
H         -0.88680        1.90480        0.11660
H          1.15050        2.84220       -0.23860
H          2.26180        0.13590        0.12280
H          3.56990        0.30770       -1.88790
H          2.83310        1.88040       -2.31320
H          5.42120        2.02770       -0.83150
H          3.86290        1.81340        1.59620
