18
gdb 16063	3.11636	1.67021	1.37582	1.6161	67.62	-0.2356	0.0642	0.2998	965.9859	0.153146	-384.888667	-384.880477	-384.879533	-384.921322	30.282
C         -0.02250        1.55470        0.13610
C          0.04450        0.04400        0.17100
C          1.28280       -0.73230       -0.16560
O          2.46340       -0.03130        0.23200
C          2.06050       -0.12210        1.62640
C          0.73840       -0.78910        1.24940
C          0.06480       -1.87970        2.02340
O         -0.60680       -1.39860        3.18270
H          0.96620        1.98990        0.29750
H         -0.37700        1.89830       -0.84130
H         -0.70480        1.95000        0.89640
H         -0.85380       -0.46320       -0.18120
H          1.37860       -1.47760       -0.94810
H          2.73240       -0.79270        2.17480
H          2.03190        0.85540        2.12000
H         -0.62120       -2.43360        1.36210
H          0.80400       -2.59790        2.39650
H         -1.24120       -0.73530        2.89100
