14
gdb 8785	4.60237	1.33211	1.03977	0.6659	68.04	-0.2316	-0.0878	0.1437	1076.757	0.105057	-378.702878	-378.693882	-378.692938	-378.737395	30.534
C         -0.09200        1.42640        0.04170
N         -0.05670       -0.00830       -0.12570
C          0.60340       -0.59890       -1.14720
N          1.24570        0.06020       -2.04240
C          0.49040       -2.11450       -1.10150
O         -0.13210       -2.68270       -0.22790
C          1.16680       -2.84090       -2.15810
C          1.71290       -3.48560       -3.01570
H          0.91840        1.83420        0.15910
H         -0.54220        1.91360       -0.83070
H         -0.68040        1.66640        0.92910
H         -0.52610       -0.62250        0.51860
H          1.66600       -0.58050       -2.71400
H          2.19450       -4.05730       -3.77230
