18
gdb 9892	4.93033	0.93321	0.87842	1.8995	69.55	-0.2502	-0.022	0.2282	1316.1506	0.15117	-384.932924	-384.924007	-384.923062	-384.967263	31.977
O         -0.43190        1.31080       -0.27250
C         -0.09880       -0.03570       -0.03930
C          1.03190       -0.55590       -0.90810
C          2.35040        0.21090       -0.69310
C          3.43060       -0.25040       -1.64210
O          4.51200       -0.66380       -1.31210
C         -0.28620       -0.56550        1.36050
C         -1.26940       -0.92110        0.25960
H          0.17560        1.86150        0.23260
H          1.18630       -1.62070       -0.70010
H          0.73080       -0.47370       -1.96040
H          2.16830        1.27580       -0.89870
H          2.71670        0.10960        0.33270
H          3.14700       -0.18760       -2.71970
H          0.38750       -1.33470        1.72320
H         -0.62360        0.13680        2.11490
H         -2.24040       -0.44130        0.28740
H         -1.26710       -1.93350       -0.12930
