16
gdb 18656	3.19085	2.30292	1.54734	3.0885	69.87	-0.2276	-0.0117	0.2158	826.2545	0.132165	-346.627366	-346.620765	-346.619821	-346.658153	25.944
O          0.06740       -0.01050        0.24330
C         -0.00850        1.18090        0.03270
C         -1.36210        1.85610       -0.19230
C         -1.32370        3.04510       -1.11820
C         -0.19980        3.69040       -1.42850
C          1.12120        3.33350       -0.85480
C          1.28950        3.38080        0.64000
C          1.20850        2.03280       -0.05700
H         -2.05030        1.08380       -0.54930
H         -1.75160        2.15790        0.79310
H         -2.27360        3.37560       -1.52890
H         -0.22800        4.54230       -2.10190
H          1.99130        3.58590       -1.45180
H          2.25700        3.64900        1.04900
H          0.44050        3.71200        1.22760
H          2.12660        1.45970       -0.11050
