22
gdb 7777	3.07001	1.63904	1.1317	0.1754	84.68	-0.2251	0.0365	0.2616	1130.8333	0.201302	-313.106659	-313.098169	-313.097225	-313.139066	33.003
C         -0.00480        1.55980        0.03260
C          0.02320        0.02980       -0.00830
C          0.69720       -0.50440       -1.27980
C          0.61230       -2.03440       -1.35440
C          0.93780       -2.68690       -0.03660
C          1.00120       -2.03960        1.12970
C          1.36230       -2.73140        2.41630
C          0.71870       -0.55630        1.23140
H          1.01110        1.97140       -0.00290
H         -0.55930        1.97030       -0.81810
H         -0.47890        1.92650        0.94970
H         -1.01560       -0.33220       -0.00680
H          0.24240       -0.05530       -2.17060
H          1.75210       -0.19650       -1.27720
H         -0.39520       -2.33890       -1.67760
H          1.28970       -2.41230       -2.13130
H          1.13320       -3.75780       -0.05770
H          1.58240       -3.79110        2.25970
H          2.24190       -2.26730        2.88230
H          0.54960       -2.65590        3.15080
H          1.66470       -0.02030        1.41210
H          0.10780       -0.36260        2.12430
