16
gdb 10839	4.63991	1.56993	1.23291	2.1722	61.27	-0.2377	-0.0317	0.206	956.9103	0.129657	-420.893566	-420.885974	-420.885029	-420.925646	27.848
C         -0.11890        1.49640        0.01160
C          0.02840       -0.00850        0.00150
O          0.71910       -0.37830       -1.16990
C          0.84660       -1.78100       -1.31030
C          1.27320       -2.49230       -0.02900
O          1.80620       -3.57430       -0.04220
C          0.88220       -1.79480        1.27110
O          0.75150       -0.39070        1.14910
H          0.87170        1.95700       -0.00020
H         -0.67490        1.82250       -0.86980
H         -0.64940        1.81310        0.91190
H         -0.95880       -0.51310        0.01260
H         -0.11180       -2.23470       -1.62320
H          1.57940       -1.97940       -2.09550
H         -0.06750       -2.25170        1.60520
H          1.63620       -2.00170        2.03370
