14
gdb 17720	4.855	2.66826	2.17774	1.9493	64.21	-0.2265	-0.0087	0.2178	637.7608	0.107967	-345.25976	-345.254705	-345.253761	-345.288426	22.041
O         -0.10890        1.48780       -0.00250
C          1.38060        1.23730       -0.03070
C          1.30660        0.11070        1.02280
C          1.74690       -1.09850        0.13470
C          0.54440       -2.07650        0.24700
C         -0.56830       -1.32210        0.22500
C          0.05720        0.05200        0.10110
C          1.24580       -0.03480       -0.89580
H          2.00540        2.12330       -0.11770
H          1.28530        0.20250        2.10880
H          2.75480       -1.51050        0.13400
H          0.61480       -3.15200        0.32630
H         -1.60860       -1.60170        0.27920
H          1.15570       -0.10740       -1.97970
