14
gdb 15322	3.28466	1.32742	1.02373	4.2716	60.78	-0.2603	-0.035	0.2253	1087.4913	0.104667	-419.685652	-419.677657	-419.676713	-419.71941	27.189
O          0.12660        0.06550       -0.15750
C          0.18450        1.25020       -0.26720
O          1.04950        2.00100        0.45930
C          1.02280        3.39280        0.23570
C          2.12470        4.16550        0.84400
C          2.06560        4.02270       -0.68010
C          3.09290        3.17590       -1.33910
O          3.53630        3.39870       -2.43780
H         -0.44570        1.85590       -0.94500
H          0.02360        3.81820        0.21000
H          1.91750        5.13830        1.27250
H          2.89340        3.59060        1.34970
H          1.75080        4.87960       -1.26530
H          3.44100        2.31000       -0.73580
