15
gdb 9591	3.81765	1.28805	1.19542	2.7937	70.49	-0.2481	-0.0389	0.2092	1036.9637	0.115927	-362.611795	-362.603358	-362.602414	-362.644685	30.452
C         -0.17330        1.57020        0.04380
C          0.02180        0.06480       -0.00900
N          1.33500       -0.40820       -0.46610
C          0.96580       -0.66580        0.93470
C          1.75570        0.05970        1.97170
O          1.80530       -0.28590        3.12510
C         -1.14220       -0.68590       -0.41250
C         -2.11520       -1.29300       -0.77510
H          0.76750        2.07550        0.26680
H         -0.53320        1.92920       -0.92460
H         -0.91340        1.83710        0.80340
H          1.23910       -1.25940       -1.01410
H          0.65350       -1.66250        1.23350
H          2.31040        0.94560        1.59580
H         -2.97500       -1.83280       -1.08740
