19
gdb 2205	3.12009	2.54906	1.95743	1.4024	66.36	-0.2489	0.0614	0.3103	776.9339	0.171064	-310.912788	-310.904742	-310.903798	-310.944517	30.163
C          0.55750        1.50140       -0.02280
C          0.00470        0.07940        0.02380
C          0.68660       -0.94160       -0.93790
C          1.40130       -1.62580        0.26770
C          2.89930       -1.35770        0.38620
C          0.48570       -0.79620        1.22850
O          1.04420       -0.17670        2.36220
H          1.65360        1.52460        0.00030
H          0.25010        2.00390       -0.94580
H          0.19250        2.09390        0.82240
H         -1.08510        0.12440       -0.06730
H         -0.02190       -1.59550       -1.45230
H          1.35180       -0.50420       -1.68930
H          1.23220       -2.70490        0.33740
H          3.14520       -0.29650        0.26080
H          3.28060       -1.67650        1.36170
H          3.45030       -1.90340       -0.38690
H         -0.33150       -1.41000        1.61730
H          1.77430        0.38010        2.07430
