19
gdb 1338	4.87395	1.56612	1.4352	1.2841	68.11	-0.2454	0.079	0.3244	942.9933	0.169716	-310.912131	-310.903647	-310.902703	-310.944406	31.592
C         -0.07210        1.54060       -0.24270
C         -0.00440        0.07890        0.21600
C         -1.36050       -0.59530        0.18970
C         -1.90580       -1.23930       -1.07660
C         -1.56550       -2.08090        0.13370
C         -0.41920       -3.06620        0.09790
O         -2.64680       -2.51060        0.92840
H          0.91590        2.01090       -0.21930
H         -0.45800        1.61330       -1.26490
H         -0.73600        2.12550        0.40320
H          0.69880       -0.46660       -0.42410
H          0.40900        0.03320        1.23210
H         -2.11580       -0.09650        0.79240
H         -2.95550       -1.09850       -1.30940
H         -1.24890       -1.29370       -1.94040
H          0.41790       -2.70270       -0.50300
H         -0.05710       -3.27120        1.11070
H         -0.74700       -4.01750       -0.34020
H         -3.03180       -3.28520        0.50280
