13
gdb 4379	3.7085	2.01237	1.3045	0.4018	63.59	-0.2198	-0.0126	0.2072	856.5485	0.098209	-398.68442	-398.678245	-398.6773	-398.714545	24.477
O          0.12610        1.30680       -0.01200
C          0.08520       -0.04130       -0.03540
C         -0.02850       -0.69690       -1.26070
C         -0.06640       -2.08610       -1.23110
C          0.00700       -2.77040       -0.02350
C          0.11870       -2.00070        1.13380
O          0.19320       -2.61890        2.33030
N          0.15760       -0.66910        1.13740
H          0.20520        1.56000        0.91750
H         -0.08290       -0.12800       -2.17890
H         -0.15420       -2.64130       -2.15920
H         -0.01920       -3.84970        0.04170
H          0.26470       -1.91930        2.99340
