15
gdb 7729	3.13721	1.9309	1.30535	3.0254	61.24	-0.2302	-0.0404	0.1898	899.1002	0.119058	-399.831201	-399.823942	-399.822998	-399.863452	26.848
O          0.15160        0.39400        1.05210
C          0.01120        1.22220        0.18830
C         -1.33440        1.90800       -0.09230
N         -1.33070        2.86570       -1.19080
C         -0.23660        3.82510       -1.11150
C          1.15490        3.21930       -0.87350
O          2.15360        3.88990       -0.80640
C          1.15980        1.70080       -0.69920
H         -2.08980        1.13630       -0.26990
H         -1.63160        2.41610        0.83590
H         -1.31900        2.38480       -2.08260
H         -0.20260        4.43150       -2.02190
H         -0.42310        4.52640       -0.28600
H          2.12140        1.34870       -0.32570
H          0.99060        1.26690       -1.69760
