14
gdb 23708	5.62408	1.44887	1.15342	2.7119	68.11	-0.1994	-0.0039	0.1955	950.0397	0.108737	-386.754361	-386.747754	-386.74681	-386.784852	26.102
N         -0.01630        1.41630        0.15310
C          0.00200        0.01940        0.04890
C         -1.19180       -0.71420        0.03520
C         -1.17640       -2.10430       -0.00320
C          0.03950       -2.77070       -0.02880
F          0.05750       -4.11230       -0.06850
C          1.23700       -2.07150       -0.01710
C          1.21510       -0.68150        0.02140
H          0.80620        1.87030       -0.21820
H         -0.85510        1.84780       -0.20860
H         -2.14230       -0.18980        0.05880
H         -2.09840       -2.67400       -0.01590
H          2.17390       -2.61600       -0.04040
H          2.15120       -0.13150        0.03410
