19
gdb 7687	3.51439	1.72744	1.54561	1.6531	71.66	-0.2281	0.0587	0.2869	922.7315	0.164694	-365.016692	-365.008453	-365.007508	-365.048549	31.904
C         -0.09000        1.56610        0.04720
C          0.02310        0.05630       -0.06410
C         -1.10310       -0.67990        0.64220
C          0.58130       -0.66040       -1.23800
C          1.75490        0.03080       -1.90950
O          1.42830        1.18290       -2.66030
C          2.39900        0.14990       -0.49860
N          1.30160       -0.67170        0.12120
H          0.57580        2.10060       -0.62750
H         -1.11260        1.86910       -0.20010
H          0.10550        1.88330        1.07880
H         -2.06720       -0.45730        0.17240
H         -0.93880       -1.75990        0.61640
H         -1.15780       -0.37290        1.69210
H          0.10140       -1.55160       -1.63260
H          2.31490       -0.68390       -2.52570
H          2.22060        1.47680       -3.12120
H          3.35230       -0.37420       -0.40130
H          2.50100        1.15940       -0.09190
