11
gdb 90	10.79571	4.78732	3.54292	2.7119	42.77	-0.2415	-0.0194	0.2222	379.6371	0.090544	-231.15578	-231.150804	-231.149859	-231.184401	17.076
O         -0.00100        0.01850       -0.20110
C         -0.01410        1.19660        0.00210
C         -1.13540        2.22980        0.21960
C         -0.03500        3.29100        0.53050
C          1.08470        2.25950        0.18990
H         -1.71640        2.41770       -0.68900
H         -1.83390        1.98420        1.02440
H         -0.05530        4.17590       -0.10670
H         -0.02540        3.61400        1.57280
H          1.81070        2.03290        0.97580
H          1.63600        2.46260       -0.73380
