18
gdb 16804	3.47757	1.83571	1.38932	2.0472	73.13	-0.2259	0.0146	0.2405	934.2991	0.15434	-347.803438	-347.795831	-347.794887	-347.834921	29.643
C         -0.03710        1.50230        0.07370
C         -0.02400        0.00860       -0.00610
C         -0.00860       -0.75510       -1.10360
C         -0.01230       -2.24180       -0.79110
O          0.98480       -2.98820       -1.47970
C          0.08800       -2.27290        0.73810
C          1.30330       -1.64560        1.38140
C          0.02380       -0.84630        1.22870
H          0.83470        1.87510        0.62620
H         -0.03880        1.96020       -0.91880
H         -0.92270        1.86000        0.61420
H          0.03060       -0.39310       -2.12520
H         -0.95250       -2.70710       -1.11390
H          1.84100       -2.65040       -1.19390
H         -0.40230       -3.07620        1.27390
H          1.56640       -2.00360        2.37130
H          2.15210       -1.35450        0.76910
H         -0.53050       -0.55640        2.11490
