16
gdb 18629	3.25329	2.14681	1.81984	2.865	66.25	-0.2412	0.0128	0.2541	793.6734	0.132253	-379.90481	-379.897917	-379.896973	-379.93573	26.303
C         -0.12720        1.49610        0.20380
N          0.09150        0.06670        0.00500
C          0.51940       -0.47820       -1.26540
C          1.17240        0.45220       -2.27140
O          2.28590        1.06380       -1.59650
C          2.55860        0.41640       -0.41580
N          3.60040        0.59120        0.27560
C          1.43600       -0.50670       -0.08110
H          0.56070        2.15720       -0.33930
H         -1.15160        1.72920       -0.10240
H         -0.03680        1.70980        1.27230
H         -0.01470       -1.34930       -1.63310
H          1.53970       -0.10950       -3.13820
H          0.51490        1.25240       -2.62670
H          4.23200        1.24790       -0.18680
H          1.64820       -1.36910        0.53930
