15
gdb 3251	6.01815	2.34729	2.11789	2.1715	61.24	-0.23	0.075	0.3049	656.0406	0.126762	-304.6143	-304.608457	-304.607513	-304.643672	23.127
C         -0.05660        1.50220       -0.05920
N          1.20320        0.73100        0.08750
C         -0.07300        0.02990       -0.00160
C         -0.54010       -0.96350        1.09060
C         -0.91630       -1.93130       -0.04340
N         -1.91880       -1.22570       -0.87930
C         -0.46610       -0.96160       -1.08100
H         -0.33150        2.08540        0.81530
H         -0.27260        1.98170       -1.01060
H          1.69130        0.69100       -0.80500
H          0.30460       -1.30540        1.69290
H         -1.36570       -0.65010        1.73370
H         -0.85920       -3.01230       -0.03590
H         -2.20080       -1.87480       -1.61500
H          0.00590       -1.12190       -2.04400
