12
gdb 3548	5.85186	3.03253	2.62661	4.2036	52.98	-0.25	0.0006	0.2506	536.8954	0.091459	-323.329385	-323.324398	-323.323454	-323.357973	19.383
O         -0.03070        0.06770        0.05530
C         -0.08690        1.25520        0.06190
C         -1.16570        2.31970       -0.08550
C         -0.95260        3.14430        1.21970
C          0.43580        3.46230        0.65230
C          0.02280        3.14610       -0.71900
N          1.00880        2.22530       -0.00380
H         -2.15040        2.10690       -0.49070
H         -1.57550        4.04150        1.24230
H         -1.02820        2.60760        2.17050
H          1.17240        4.16900        1.01060
H          0.22860        3.53540       -1.70430
