18
gdb 2371	4.21618	1.99909	1.5426	1.3809	64.5	-0.2248	0.0729	0.2977	848.0778	0.158422	-326.941251	-326.932945	-326.932001	-326.973478	30.215
C          0.47060       -2.39450       -1.34800
C          0.10300       -1.66820       -0.05260
O          0.92540       -0.51770        0.15060
C         -1.36760       -1.29670       -0.03000
C         -2.38630       -2.18010        0.61050
N         -2.07030       -0.87750        1.17860
C         -1.35920       -0.83650        2.45020
H          1.54230       -2.60900       -1.36740
H         -0.08040       -3.33550       -1.44370
H          0.22990       -1.77570       -2.22130
H          0.33540       -2.31870        0.79630
H          0.71450        0.11900       -0.54180
H         -1.67180       -0.72880       -0.91310
H         -3.37790       -2.29600        0.18030
H         -2.01170       -3.06430        1.12800
H         -0.73850       -1.72240        2.65550
H         -0.71020        0.04260        2.47080
H         -2.09510       -0.75060        3.25590
