17
gdb 12869	2.74158	2.44228	1.83791	1.7796	67.49	-0.2373	0.0183	0.2556	814.0724	0.142368	-363.868327	-363.860785	-363.85984	-363.899855	28.316
C         -0.07320        1.53720        0.00580
C          0.09090        0.03530        0.01440
C          1.41500       -0.68870       -0.22260
N          2.63230        0.06270       -0.02350
C          2.61700        0.41590        1.19830
O          1.58770        0.01550        1.98730
C          0.72000       -0.74620        1.13680
C          0.08970       -1.91230        1.83750
H          0.81950        2.05260        0.36590
H         -0.27160        1.89400       -1.00980
H         -0.91230        1.83930        0.64110
H         -0.74280       -0.50400       -0.43000
H          1.46320       -1.50680       -0.93210
H          3.36530        1.01890        1.69850
H         -0.58080       -1.57810        2.63650
H         -0.49890       -2.50080        1.12830
H          0.85120       -2.56310        2.27850
