16
gdb 5263	7.06868	1.1066	0.96846	1.7531	67.1	-0.2184	0.0251	0.2436	1173.3466	0.130541	-383.750924	-383.743148	-383.742204	-383.784081	27.326
C         -0.20130        1.41530       -0.38920
O         -0.26230        0.01730       -0.53350
C         -0.99740       -0.60790        0.49410
C         -1.00740       -2.08380        0.25950
C         -0.41340       -2.75080       -0.76460
O         -0.63150       -4.09070       -0.65640
C         -1.37990       -4.27840        0.46010
C         -1.64290       -3.09140        1.06400
H          0.38370        1.80480       -1.22560
H         -1.20320        1.87300       -0.41200
H          0.28740        1.70830        0.55380
H         -0.55340       -0.37700        1.47950
H         -2.03000       -0.21480        0.52200
H          0.17140       -2.42710       -1.60720
H         -1.63960       -5.29940        0.68590
H         -2.21520       -2.94330        1.96700
