13
gdb 9990	2.9534	1.35886	0.96434	3.1243	64.82	-0.2697	-0.0471	0.2226	1116.7293	0.092399	-361.439367	-361.430836	-361.429892	-361.473459	28.833
O         -0.49670        0.61840        0.84680
C          0.09660        0.92870       -0.15200
C          1.35190        1.78370       -0.14680
C          1.31530        2.93690       -1.19410
C          2.49990        3.78740       -1.08380
C          3.47460        4.47610       -0.96140
C          1.17740        2.40580       -2.56190
N          1.05590        1.96890       -3.62410
H         -0.23920        0.58800       -1.15560
H          1.49140        2.20460        0.85060
H          2.21050        1.13980       -0.37350
H          0.42440        3.54990       -0.99820
H          4.33580        5.09100       -0.86470
