14
gdb 319	6.11821	3.56308	3.551	1.329	53.49	-0.2587	0.0809	0.3397	476.4978	0.120826	-270.382725	-270.377533	-270.376589	-270.410876	20.67
O         -0.07250        1.34930        0.00930
C          0.02140       -0.02950        0.00170
C          0.66050       -0.97000        1.07450
C          0.03140       -1.89250       -0.00750
C         -1.21440       -0.95780        0.00630
C          0.64450       -0.95930       -1.08960
H          0.81860        1.71510        0.00440
H          1.75260       -0.97190        1.14360
H          0.19000       -0.97590        2.06110
H          0.03180       -2.97950       -0.01290
H         -1.81980       -0.95930        0.91640
H         -1.83320       -0.95040       -0.89470
H          0.15940       -0.95550       -2.06910
H          1.73540       -0.96050       -1.17490
