17
gdb 6492	3.71832	1.44805	1.28724	3.0977	64.35	-0.2408	0.0288	0.2696	992.1864	0.140893	-401.021833	-401.013239	-401.012295	-401.055464	31.408
C          0.38990        1.43370       -0.03640
C         -0.09580        0.00190       -0.03950
C         -1.53000       -0.22290        0.41520
C         -1.74920        0.08310        1.90390
N         -0.95890       -0.65220        2.73770
O         -2.57700        0.88180        2.29550
C          0.54760       -0.99330       -0.91100
O          0.84620       -0.95820        0.48970
H          0.25820        1.88520        0.95200
H          1.44910        1.48050       -0.29980
H         -0.17920        2.03310       -0.75440
H         -2.21200        0.42050       -0.14480
H         -1.81030       -1.26520        0.22980
H         -0.18000       -1.17500        2.36710
H         -0.98870       -0.43830        3.72130
H         -0.01460       -1.86260       -1.24880
H          1.36740       -0.69190       -1.56140
