13
gdb 4247	3.83894	2.01862	1.32297	5.398	64.22	-0.2308	-0.0334	0.1974	847.7324	0.098908	-394.851816	-394.845354	-394.84441	-394.882445	24.772
N         -0.08960        1.29580        0.36560
C          0.01800        0.08090       -0.00640
N          1.19920       -0.60940       -0.29310
C          1.22970       -1.92300       -0.68940
C          0.11050       -2.65490       -0.83380
C         -1.18990       -2.04750       -0.56410
O         -2.26760       -2.59910       -0.65710
N         -1.10910       -0.70570       -0.16670
H          0.81510        1.75440        0.44240
H          2.05880       -0.09600       -0.19670
H          2.22060       -2.32100       -0.87560
H          0.13600       -3.68810       -1.14570
H         -1.98710       -0.24540        0.03060
