19
gdb 3992	5.68512	0.81963	0.77156	1.0087	73.21	-0.2454	0.01	0.2554	1510.7112	0.161994	-402.156301	-402.146194	-402.14525	-402.192448	34.493
C         -0.97490        0.97430       -0.06490
C          0.22350        0.04820        0.05060
O          0.49970       -0.49210       -1.22670
C          1.59330       -1.38760       -1.22540
C          1.74590       -1.97300       -2.60400
C          0.56510       -2.64880       -3.23970
N          2.91070       -1.85990       -3.11700
O          2.99970       -2.48300       -4.36980
H         -0.76590        1.78530       -0.76810
H         -1.85070        0.42640       -0.42430
H         -1.21380        1.41130        0.90920
H          1.10250        0.59710        0.42830
H          0.01990       -0.76430        0.76930
H          2.52840       -0.88670       -0.93840
H          1.40960       -2.20030       -0.49790
H         -0.35970       -2.21970       -2.85070
H          0.59890       -2.54460       -4.32520
H          0.57030       -3.72230       -3.01260
H          3.90020       -2.27010       -4.63630
