19
gdb 8905	2.67754	1.47204	1.00616	3.2079	71.83	-0.2747	0.0349	0.3096	1166.1048	0.163709	-365.081056	-365.071305	-365.070361	-365.115554	34.533
C          0.04470        1.55360        0.01960
C          0.02860        0.02000        0.02850
C          0.77670       -0.51790        1.25320
O          2.11730       -0.05820        1.17840
C         -1.41940       -0.54200       -0.02400
C         -2.22870       -0.05350       -1.24350
C         -1.41420       -2.01080       -0.00810
N         -1.41580       -3.16710       -0.01150
H          1.06630        1.90400        0.17690
H         -0.31500        1.96550       -0.92620
H         -0.57940        1.95750        0.82650
H          0.56290       -0.34540       -0.85780
H          0.28230       -0.15660        2.17170
H          0.73590       -1.61570        1.26330
H          2.60640       -0.43510        1.91500
H         -1.94170       -0.21950        0.88780
H         -3.21230       -0.52870       -1.26670
H         -2.37280        1.02740       -1.19870
H         -1.71040       -0.29840       -2.17510
