22
gdb 14793	6.41955	0.62497	0.5919	2.3016	76.6	-0.2594	0.084	0.3434	1936.0346	0.198601	-387.335911	-387.325572	-387.324628	-387.372418	35.718
C          0.07130        1.53520       -0.03810
C          0.09510        0.00430       -0.03480
C          0.73430       -0.58430       -1.29670
C          0.75530       -2.10630       -1.29260
O          1.36070       -2.55950       -2.48710
C          1.44850       -3.96770       -2.59070
C          2.25680       -4.26310       -3.84470
O          3.54400       -3.68370       -3.77340
H          1.08470        1.94660       -0.10070
H         -0.49420        1.91980       -0.89390
H         -0.39240        1.92840        0.87180
H          0.63950       -0.35110        0.85000
H         -0.92980       -0.37660        0.06680
H          0.19190       -0.24340       -2.18720
H          1.76410       -0.21990       -1.40080
H          1.31280       -2.48300       -0.41780
H         -0.27090       -2.50460       -1.21460
H          1.95960       -4.38430       -1.70760
H          0.44600       -4.42310       -2.65340
H          2.38990       -5.34440       -3.95500
H          1.69920       -3.89960       -4.72300
H          3.39950       -2.77130       -3.49530
