13
gdb 2194	4.0572	2.63134	1.84225	2.9275	49.93	-0.2659	-0.003	0.2629	681.6803	0.100613	-381.612946	-381.605844	-381.6049	-381.6442	24.633
C         -0.24430        1.50490        0.03220
C          0.06280        0.02660        0.03590
O          1.27710       -0.29030       -0.75260
C          1.95060       -0.72600        0.35220
O          3.08840       -1.06190        0.44480
C          0.74380       -0.56610        1.29170
O          0.89310        0.31830        2.36920
H          0.59020        2.07700        0.44210
H         -0.44740        1.84420       -0.98700
H         -1.12810        1.70130        0.64680
H         -0.76760       -0.57080       -0.34780
H          0.32380       -1.53360        1.59990
H          1.67630        0.05210        2.86390
