13
gdb 1638	4.92384	2.10431	1.4899	4.7493	52.29	-0.2583	-0.0085	0.2498	763.4856	0.101719	-377.837977	-377.830535	-377.829591	-377.869484	26.026
C         -0.05620        1.48800        0.01160
N         -0.01230        0.03090       -0.00740
C          0.03940       -0.64840        1.20660
O          0.06050       -0.09510        2.28070
C         -0.04270       -0.72610       -1.19750
N         -0.06880        0.02260       -2.34620
O         -0.08060       -1.93910       -1.20110
H          0.85610        1.92430       -0.41230
H         -0.92710        1.85940       -0.53580
H         -0.12800        1.78810        1.05700
H          0.05760       -1.73530        1.05950
H          0.25070        0.97560       -2.36290
H          0.05450       -0.51330       -3.19000
