15
gdb 14930	4.7456	1.54047	1.23489	5.6296	61.79	-0.288	0.0139	0.3019	942.9625	0.120373	-399.803871	-399.796991	-399.796046	-399.835015	25.678
N         -0.04820       -1.11670       -0.11510
C         -0.01230        0.03220       -0.02180
C          0.00390        1.50550        0.04750
O         -0.67510        1.89110        1.20990
C         -0.71790        3.31520        1.32270
C          0.69860        3.89200        1.29420
C          1.42390        3.35090        0.06080
O          1.33980        1.92470        0.02280
H         -0.52550        1.90820       -0.83970
H         -1.31940        3.73110        0.49740
H         -1.23330        3.52680        2.26150
H          0.66640        4.98650        1.27050
H          1.23530        3.58290        2.19640
H          0.98320        3.76950       -0.85920
H          2.48930        3.58890        0.06830
