22
gdb 9769	3.49734	1.42359	1.38209	1.5098	76.97	-0.2448	0.0756	0.3203	1057.0689	0.200813	-350.218581	-350.209736	-350.208792	-350.252204	33.236
C         -0.14570        1.53720        0.10970
C          0.00580        0.01700       -0.02720
C          0.77760       -0.46680       -1.26870
C          2.23190        0.03580       -1.27890
C          0.76040       -2.02230       -1.38340
C          0.46590       -2.29880       -2.87860
O          0.51820       -1.04090       -3.54200
C          0.08920       -0.07700       -2.59690
H          0.82190        2.03860        0.20540
H         -0.66210        1.97190       -0.75300
H         -0.73160        1.78520        1.00020
H          0.49990       -0.37760        0.87030
H         -0.99350       -0.43760       -0.04570
H          2.78020       -0.32920       -0.40320
H          2.74800       -0.32030       -2.17550
H          2.28610        1.12890       -1.27800
H          1.71550       -2.45060       -1.06850
H         -0.01580       -2.45670       -0.74680
H          1.19560       -2.95720       -3.35760
H         -0.53080       -2.75090       -3.00140
H         -1.00950       -0.09960       -2.48310
H          0.37710        0.90820       -2.97320
