14
gdb 4228	4.90629	1.44595	1.42647	2.1377	46.73	-0.3446	0.086	0.4306	885.3722	0.109275	-456.103432	-456.095918	-456.094973	-456.135756	26.166
C         -0.00130        1.58140        0.01050
C          0.00760        0.05150        0.00220
C         -1.40640       -0.53860        0.01260
C         -1.41590       -2.05130        0.00460
F         -0.78550       -2.56090        1.07710
F         -2.67010       -2.53310        0.01400
F         -0.80620       -2.54930       -1.08530
H          1.01790        1.97830        0.00300
H         -0.52150        1.98160       -0.86660
H         -0.50460        1.97210        0.90170
H          0.53930       -0.31520       -0.88260
H          0.55610       -0.32470        0.87270
H         -1.95890       -0.21670        0.90170
H         -1.97580       -0.20720       -0.86220
