19
gdb 3180	4.64233	1.96189	1.78797	0.038	71.21	-0.2431	0.0878	0.3309	814.0872	0.171599	-273.759553	-273.752083	-273.751139	-273.790974	28.88
C          0.07190        1.55540        0.00950
C          0.00950        0.03960        0.00210
C          1.09060       -0.69040       -0.76540
C          1.10220       -0.69810        0.74540
C         -1.35230       -0.60580        0.00920
C         -2.52790       -0.05020        0.77580
C         -2.53890       -0.04340       -0.73510
H          1.11210        1.89410        0.00260
H         -0.41710        1.98800       -0.87040
H         -0.40250        1.97880        0.90170
H          0.82190       -1.60780       -1.27860
H          1.84120       -0.09980       -1.28030
H          1.86070       -0.11270        1.25470
H          0.84140       -1.62070        1.25330
H         -1.29110       -1.69170        0.00390
H         -3.17480       -0.74830        1.29580
H         -2.41300        0.90210        1.28110
H         -2.43140        0.91330       -1.23350
H         -3.19340       -0.73700       -1.25180
