18
gdb 7158	2.52038	1.14305	0.82421	2.0791	73.6	-0.2486	0.0374	0.2859	1413.1076	0.150136	-384.89667	-384.886207	-384.885263	-384.934489	34.443
C          0.87360        1.23730       -0.26180
O          0.91710       -0.16310       -0.39270
C         -0.19380       -0.68610       -1.07610
C         -0.03300       -2.21100       -1.18610
O         -1.24520       -2.78370       -1.67490
C          1.12160       -2.58790       -2.00010
C          2.03650       -2.89740       -2.71980
C          3.15700       -3.27690       -3.56760
H          0.86400        1.73880       -1.24260
H         -0.01410        1.56850        0.30030
H          1.77040        1.54290        0.28240
H         -1.13220       -0.48140       -0.53640
H         -0.28290       -0.25050       -2.08620
H          0.09140       -2.60120       -0.16900
H         -1.21570       -2.73490       -2.63630
H          3.01940       -4.28180       -3.98170
H          3.27790       -2.58360       -4.40710
H          4.09430       -3.27800       -3.00070
