20
gdb 14777	12.03944	0.53029	0.52275	2.8733	74.23	-0.25	-0.021	0.229	2064.9937	0.174109	-386.141684	-386.131544	-386.130599	-386.178299	33.602
C          0.02900        1.39790       -0.09840
O          0.03480       -0.00800       -0.04960
C          0.66070       -0.51610        1.10700
C          0.60040       -2.03730        1.06090
C          1.25910       -2.69160        2.27900
C          1.18220       -4.22790        2.23960
C          1.93310       -4.85920        3.38890
O          1.46320       -5.62830        4.18690
H          1.04990        1.81250       -0.10380
H         -0.47530        1.69200       -1.02210
H         -0.51180        1.83530        0.75620
H          1.70980       -0.17380        1.15940
H          0.15700       -0.13880        2.01480
H         -0.45000       -2.34330        0.99040
H          1.08840       -2.37970        0.14030
H          2.31140       -2.38240        2.34030
H          0.77940       -2.33150        3.19820
H          0.14700       -4.58060        2.26060
H          1.64480       -4.58510        1.30760
H          3.00300       -4.54690        3.45890
