16
gdb 20764	3.27894	1.99885	1.2628	3.7212	68.21	-0.2063	0.0223	0.2286	945.7465	0.12985	-379.934944	-379.926458	-379.925514	-379.968076	30.261
C         -0.02730        1.49020       -0.02650
C          0.00790       -0.00370        0.02460
N         -0.01150       -0.69020       -1.09360
O          0.03040       -2.04470       -0.69120
C          0.07150       -2.09280        0.64550
N          0.17840       -3.34880        1.20180
C          0.05760       -0.83480        1.18420
C          0.09620       -0.43030        2.62420
H          0.86960        1.92150        0.43100
H         -0.08730        1.82740       -1.06300
H         -0.89230        1.88260        0.51950
H         -0.20610       -4.08270        0.62250
H         -0.14480       -3.40750        2.15660
H          1.10280       -0.14800        2.95780
H         -0.55910        0.42590        2.81620
H         -0.24090       -1.24150        3.27950
