16
gdb 5228	7.32601	1.12478	1.00384	3.1605	68.56	-0.1975	0.0214	0.2189	1154.2529	0.131822	-379.946224	-379.938511	-379.937566	-379.979304	27.478
C          0.09330        1.44900        0.12310
C         -0.07650       -0.02190       -0.23790
N         -1.38680       -0.50850        0.21110
C         -1.68790       -1.84600        0.06980
C         -2.80100       -2.55390       -0.27010
N         -2.53280       -3.91310       -0.12050
C         -1.30900       -3.96130        0.27260
O         -0.71580       -2.73740        0.42000
H          1.07740        1.80740       -0.19130
H         -0.65930        2.07040       -0.37620
H         -0.00540        1.59760        1.20200
H          0.06090       -0.16660       -1.32170
H          0.68590       -0.62390        0.26310
H         -2.14950        0.07300       -0.11060
H         -3.75980       -2.19150       -0.60250
H         -0.69240       -4.81930        0.48470
