11
gdb 23692	3.80836	1.96701	1.29708	2.7364	56.98	-0.2381	-0.0643	0.1737	818.8727	0.073353	-438.73507	-438.729135	-438.728191	-438.765278	22.342
F          0.07540        0.02980        0.00310
C         -0.05590        1.34420        0.01110
C         -1.24990        1.98880        0.03010
N         -1.27790        3.35600        0.03710
C         -0.17100        4.03330        0.02550
C          1.17150        3.44620        0.00450
O          2.23580        4.02810       -0.00670
N          1.10850        2.03300       -0.00120
H         -2.18430        1.44510        0.04000
H         -0.21710        5.11880        0.03140
H          1.98890        1.53330       -0.01540
