13
gdb 5646	5.42	2.20936	1.56956	3.5581	66.03	-0.182	0.0161	0.1981	739.6805	0.100057	-357.683451	-357.677689	-357.676745	-357.712892	23.123
N          0.00280        1.34520        0.00960
C          1.27870        1.88620        0.00020
C          2.11910        0.79740       -0.01370
N          3.43090        0.36020       -0.02860
C          3.36960       -1.02400       -0.03540
N          2.16310       -1.51990       -0.02640
C          1.34220       -0.39910       -0.01260
C          0.00990       -0.02960        0.00220
H         -0.83470        1.90030        0.02060
H          1.43490        2.95090        0.00440
H          4.26970        0.91250       -0.03380
H          4.27900       -1.60980       -0.04730
H         -0.90620       -0.59530        0.00800
