15
gdb 21276	3.57732	2.0101	1.30821	2.6729	63.23	-0.232	0.0276	0.2596	906.3608	0.120259	-396.002169	-395.994299	-395.993355	-396.035147	26.658
C          0.00400        1.37730        0.09880
O         -0.02340       -0.05420        0.05830
C         -1.24130       -0.59310        0.01610
N         -2.40550        0.02420        0.00770
C         -3.27620       -1.02740       -0.04130
N         -2.72820       -2.22530       -0.06300
N         -1.39090       -1.93350       -0.02500
C         -0.38590       -2.97150       -0.03260
H          1.05890        1.65040        0.12820
H         -0.47650        1.79600       -0.78950
H         -0.51310        1.74640        0.98850
H         -4.34780       -0.89550       -0.06130
H         -0.46970       -3.57260       -0.94190
H          0.59560       -2.49790        0.00240
H         -0.50850       -3.62330        0.83640
