14
gdb 19781	3.25634	2.59599	1.74211	3.9737	60.98	-0.2221	-0.0334	0.1887	738.3068	0.10927	-378.671129	-378.665153	-378.664209	-378.701117	23.69
O          0.00120        0.01150       -0.03380
C         -0.01470        1.21550        0.00970
C         -1.25920        2.08300       -0.06850
N         -1.38290        3.12360        0.98810
C         -0.81570        3.48390       -0.31660
C          0.71330        3.50500       -0.33960
N          1.32920        3.16100        0.94740
C          1.20250        2.11690       -0.10540
H         -2.15340        1.63750       -0.49000
H         -2.35940        3.41250        1.01480
H         -1.35810        4.14720       -0.98090
H          1.21710        4.18270       -1.01950
H          2.29770        3.47670        0.94500
H          2.09560        1.69600       -0.55370
