15
gdb 8167	2.8677	2.738	1.80097	3.0852	60.16	-0.241	0.0126	0.2537	750.8797	0.120582	-399.810147	-399.803395	-399.802451	-399.841526	25.739
N         -0.09550        1.49350        0.05080
C         -0.05650        0.06470        0.02300
C          0.33980       -0.80350        1.27050
C         -0.33780       -1.89360        0.41370
C         -1.34970       -0.82400       -0.04850
O          0.56300       -1.99840       -0.73850
C          0.77720       -0.67750       -1.03330
O          1.46540       -0.27070       -1.92110
H          0.85060        1.85560        0.14810
H         -0.42500        1.84020       -0.84750
H          1.39980       -0.93250        1.50040
H         -0.23110       -0.52440        2.15750
H         -0.59550       -2.89040        0.75920
H         -2.07580       -0.54680        0.71720
H         -1.82770       -0.97160       -1.01950
