21
gdb 7554	2.99511	1.47192	1.18132	2.0385	76.39	-0.2213	0.0787	0.3	1128.0293	0.186195	-366.222305	-366.212583	-366.211638	-366.256609	34.908
C          0.07520        1.38890       -0.04090
O          0.27510       -0.00280        0.00890
C          0.43160       -0.58310       -1.27250
C          0.54690       -2.08380       -1.10990
C         -0.69300       -2.74470       -0.53980
C          1.41720       -2.82070       -2.07710
N          1.81000       -2.69070       -0.68000
C          2.96230       -1.86190       -0.35900
H          0.92840        1.90960       -0.50460
H         -0.83270        1.65160       -0.60730
H         -0.03580        1.74150        0.98730
H         -0.44280       -0.35110       -1.90530
H          1.31250       -0.16020       -1.77870
H         -1.55050       -2.61120       -1.20980
H         -0.52080       -3.81390       -0.39920
H         -0.94670       -2.30260        0.42760
H          1.14300       -3.81860       -2.41190
H          1.96030       -2.23090       -2.81670
H          3.16990       -1.06090       -1.08590
H          2.81120       -1.40170        0.62140
H          3.84910       -2.50220       -0.31080
