16
gdb 10819	4.63762	1.48457	1.18369	3.5598	67.76	-0.2402	-0.0529	0.1873	975.1101	0.131162	-383.773041	-383.765688	-383.764744	-383.80468	27.831
O         -0.01490        1.44350        0.05920
C          0.01990        0.02320       -0.00870
C         -1.42200       -0.47280        0.07960
C         -1.50350       -1.97830       -0.19980
C         -0.87090       -2.36320       -1.53290
O         -1.25090       -3.31660       -2.18150
C          0.26530       -1.52240       -1.97690
C          0.67620       -0.45500       -1.28280
H          0.88760        1.76930        0.13560
H          0.59030       -0.38190        0.84730
H         -1.83500       -0.23160        1.06320
H         -2.00690        0.08260       -0.66250
H         -0.96410       -2.53220        0.58270
H         -2.53300       -2.34410       -0.19100
H          0.75060       -1.83350       -2.89700
H          1.53070        0.12590       -1.62790
