15
gdb 11244	3.62733	1.74085	1.39428	2.2307	62.85	-0.2484	-0.0325	0.216	906.55	0.118044	-399.828991	-399.821299	-399.820355	-399.86168	26.827
C         -0.18990        1.35750        0.20210
C          0.01610       -0.10180       -0.00240
N         -0.29330       -0.77960       -1.03090
C          0.12380       -2.15930       -0.77450
C          0.58470       -2.13920        0.72220
O          0.61470       -0.74890        1.04500
C         -0.40100       -2.87700        1.61100
O         -1.19040       -2.35110        2.34670
H          0.76670        1.84870        0.40590
H         -0.64510        1.79240       -0.68670
H         -0.83490        1.52530        1.06990
H         -0.70510       -2.85410       -0.94830
H          0.93550       -2.44360       -1.45280
H          1.58370       -2.56560        0.86300
H         -0.35270       -3.98490        1.48940
