13
gdb 5161	7.60172	1.26826	1.113	2.997	63.53	-0.2204	0.0022	0.2226	1003.8999	0.095972	-398.6149	-398.608018	-398.607074	-398.646971	24.489
N          0.05240        1.21350        0.27550
C         -0.05420        0.00410       -0.04700
O         -1.07480       -0.73030        0.49670
C         -1.11330       -2.05320        0.24010
C         -2.15480       -2.86710       -0.06180
C         -1.59280       -4.18780       -0.12810
C         -0.26860       -4.06190        0.13150
O          0.04380       -2.74780        0.36950
H          0.83800        1.63710       -0.21390
H          0.57330       -0.57520       -0.72960
H         -3.17660       -2.56460       -0.21710
H         -2.11690       -5.10490       -0.34650
H          0.55760       -4.74980        0.18360
