20
gdb 15229	2.26291	1.81664	1.28011	0.8017	81.32	-0.2373	0.0502	0.2875	1071.435	0.175032	-311.833893	-311.824488	-311.823544	-311.867752	34.666
C          0.24440        1.50280       -0.14360
C         -0.19770        0.05800        0.11770
C          0.58550       -0.58610        1.24260
C          0.71480       -2.07390        1.42520
C          0.07000       -3.08290        0.50160
C          1.93810       -1.26050        0.99320
C          2.46530       -1.37510       -0.33400
C          2.92170       -1.46810       -1.44450
H          1.29410        1.53720       -0.45120
H         -0.35530        1.96220       -0.93530
H          0.13760        2.11920        0.75610
H         -1.26570        0.03770        0.37150
H         -0.08560       -0.52380       -0.80180
H          0.55660       -0.01260        2.16700
H          0.76170       -2.40120        2.46100
H          0.15680       -2.79290       -0.54730
H          0.54970       -4.06140        0.60930
H         -0.99310       -3.20460        0.73660
H          2.69500       -1.10290        1.75630
H          3.32870       -1.55110       -2.42140
