11
gdb 21468	8.24274	1.23808	1.08359	1.2604	56.19	-0.2631	-0.057	0.2061	983.4157	0.071752	-430.676628	-430.669994	-430.66905	-430.708584	22.729
N         -0.07970        1.28290        0.17090
C         -0.01760        0.04440       -0.02240
O         -1.13810       -0.70340        0.24830
C         -1.06730       -2.04150        0.11730
C         -2.09150       -2.91620       -0.06570
O         -1.56850       -4.14480       -0.09050
N         -0.17510       -4.00750        0.07430
N          0.08640       -2.77570        0.19970
H          0.80530        1.72050       -0.07770
H          0.82030       -0.55290       -0.38680
H         -3.15590       -2.80970       -0.17870
