16
gdb 15880	2.25336	2.23782	1.2746	5.4813	61.35	-0.2374	-0.0116	0.2258	942.2932	0.128391	-420.859056	-420.850624	-420.84968	-420.89223	30.253
O          0.32720        0.92610       -0.86600
C          0.07090       -0.16570       -0.01550
C          0.06990        0.06000        1.52140
C         -1.24810       -0.76000        1.58100
O         -2.32440       -0.26870        2.34350
C         -1.43600       -0.55550        0.04820
C         -2.35770        0.60200       -0.28260
O         -3.26640        0.51390       -1.06680
H          1.26940        1.12100       -0.84270
H          0.67830       -1.03770       -0.29200
H          0.92830       -0.28900        2.10070
H         -0.12900        1.11120        1.74840
H         -1.05230       -1.81740        1.80300
H         -2.13350       -0.41290        3.27570
H         -1.75370       -1.41960       -0.53600
H         -2.14620        1.55240        0.24650
