16
gdb 10022	3.35093	1.0812	0.85143	1.6603	75.47	-0.2483	0.0331	0.2814	1335.3057	0.127253	-346.53849	-346.52878	-346.527836	-346.57512	33.183
C         -0.02210        1.49240        0.03080
C          0.00170        0.03710        0.01100
C          0.03670       -1.16550       -0.00580
C          0.01900       -2.62880       -0.01520
C         -1.44380       -3.16920        0.02630
O         -1.48390       -4.57370        0.07640
C          0.71070       -3.19360       -1.17920
C          1.22060       -3.70950       -2.13800
H          0.99280        1.90490        0.02160
H         -0.55150        1.89310       -0.84050
H         -0.52540        1.86920        0.92780
H          0.51500       -3.00620        0.89020
H         -1.92260       -2.80200        0.93750
H         -1.98820       -2.76260       -0.83780
H         -1.03530       -4.90030       -0.71330
H          1.70100       -4.13850       -2.98270
