17
gdb 19295	3.52068	1.86885	1.50042	2.427	64.23	-0.2288	0.0704	0.2992	882.8332	0.142376	-400.933087	-400.925484	-400.92454	-400.964855	28.665
C         -0.18810        1.34780       -0.11580
O          0.31220        0.04230        0.10910
C          0.78190       -0.57120       -1.05090
C          1.31220       -1.98360       -0.86540
N          0.15770       -2.83150       -0.47530
C          0.38480       -2.52150       -1.90590
C         -0.29160       -1.15260       -2.08210
O         -1.63170       -1.06960       -1.69920
H          0.58830        2.00820       -0.53380
H         -1.05000        1.33620       -0.79360
H         -0.49870        1.74250        0.85450
H          1.51300        0.06340       -1.57670
H          2.32300       -2.28380       -0.61990
H          0.51320       -3.76900       -0.29760
H          0.54010       -3.30700       -2.63470
H         -0.19910       -0.72710       -3.08310
H         -1.67630       -1.53070       -0.84880
