17
gdb 19725	3.93841	2.33819	2.16691	1.5099	65.83	-0.2346	0.0793	0.3139	711.0528	0.146649	-363.835483	-363.829957	-363.829013	-363.864719	23.769
C         -0.00980        1.53790       -0.00480
O          1.37580        1.94290        0.01380
C          2.14620        0.72120        0.02720
C          1.30680       -0.21640       -0.85010
C          0.04340       -0.00820        0.01450
C          0.55530       -0.34320        1.42080
N          1.67550       -1.30790        1.47940
C          1.95880        0.14560        1.43390
H         -0.52730        1.95790        0.86650
H         -0.48880        1.92350       -0.91380
H          3.16150        0.95590       -0.29130
H          1.19780        0.17370       -1.86380
H          1.65870       -1.24530       -0.86550
H         -0.87320       -0.50200       -0.30950
H         -0.10170       -0.23280        2.27710
H          1.77500       -1.62300        2.44150
H          2.39660        0.64730        2.28910
