18
gdb 19474	4.54586	1.50779	1.44467	1.4313	71.99	-0.2223	0.018	0.2402	931.6166	0.155267	-347.756819	-347.749765	-347.74882	-347.788123	27.905
O         -0.13840        1.46990       -0.17790
C          0.01910        0.08120        0.09290
C         -1.35920       -0.54910       -0.00120
C         -2.01580       -0.71720       -1.42600
C         -1.14550       -2.01310       -1.57530
C         -1.46910       -2.12140       -0.04440
C         -2.99740       -2.26480       -0.10920
C         -3.35330       -1.34740       -1.01400
H          0.72120        1.89180       -0.08930
H          0.73270       -0.37630       -0.60670
H          0.41300       -0.08210        1.11010
H         -2.00930       -0.06670        0.73410
H         -2.01080        0.08570       -2.16140
H         -1.54040       -2.80190       -2.21920
H         -0.09320       -1.82760       -1.80460
H         -0.90940       -2.76770        0.63270
H         -3.60080       -2.95470        0.46330
H         -4.33120       -1.07650       -1.38590
