15
gdb 5785	6.00272	1.48876	1.26008	1.4343	67.46	-0.2028	0.0236	0.2264	934.6942	0.120372	-362.648926	-362.64232	-362.641376	-362.68011	25.02
C         -0.18110        1.29520       -0.33380
C          1.23900        1.02010        0.02530
N          0.24120       -0.03920        0.09130
C         -0.16390       -0.50990        1.34980
C          0.60500       -0.75610        2.44960
O         -0.15670       -1.29650        3.44650
C         -1.42310       -1.38420        2.97230
C         -1.49660       -0.92410        1.69770
H         -0.76400        1.88690        0.36810
H         -0.47980        1.37970       -1.37430
H          1.99210        0.90850       -0.74890
H          1.59790        1.43400        0.96530
H          1.65370       -0.63950        2.66200
H         -2.15210       -1.79030        3.65430
H         -2.37180       -0.88060        1.06900
