15
gdb 7265	4.52326	1.19	0.99435	1.4017	60.97	-0.2774	-0.0356	0.2418	1138.3596	0.116447	-436.967801	-436.958972	-436.958027	-437.001974	30.21
C         -0.02180        1.60590        0.07290
C         -0.02380        0.07250       -0.00870
O          0.48400       -0.36730       -1.24250
C          0.78770       -0.54330        1.11890
O          1.76560       -1.22440        0.94110
O          0.27100       -0.23090        2.33720
C          0.90020       -0.72310        3.46170
N          0.41510       -0.41740        4.57850
H          1.00060        1.98940        0.00510
H         -0.59180        2.00070       -0.77110
H         -0.47570        1.95180        1.00440
H         -1.05820       -0.28410        0.11780
H          1.26110       -0.90880       -1.04460
H          1.76900       -1.33700        3.22580
H          0.96520       -0.84130        5.32430
