17
gdb 12678	2.62741	2.2579	1.51605	2.1652	63.44	-0.2324	-0.0325	0.1999	871.7213	0.142528	-401.014395	-401.006584	-401.00564	-401.046317	29.544
C          0.64840        1.41130       -0.20880
C         -0.08640        0.10420        0.08220
N          0.04730       -0.86370       -1.03950
C          1.29300       -1.61880       -0.83150
C          1.66600       -1.40470        0.63300
O          2.70130       -1.66070        1.19590
C          0.50960       -0.65610        1.29050
O          0.93000        0.10460        2.38480
H          1.71460        1.24120       -0.39610
H          0.22310        1.89020       -1.09400
H          0.56980        2.08740        0.64550
H         -1.14910        0.31280        0.22900
H         -0.74110       -1.49980       -1.02400
H          1.18020       -2.68240       -1.06330
H          2.11010       -1.24280       -1.46060
H         -0.22860       -1.42190        1.59820
H          1.80520       -0.23800        2.62450
