15
gdb 16033	3.48057	1.79453	1.47078	4.6893	67.06	-0.2596	-0.0068	0.2528	881.3022	0.118761	-362.631269	-362.623964	-362.62302	-362.662741	27.029
C         -0.00160        1.56420       -0.00150
C          0.04560        0.05580       -0.08170
C          0.64980       -0.74170       -1.21700
C          1.95150       -0.10470       -1.69070
O          2.46170       -0.02370       -0.32840
C          1.31600       -0.72560        0.15820
C          1.49070       -1.73720        1.15040
N          1.60920       -2.55590        1.95960
H          0.96770        2.00310       -0.24620
H         -0.75290        1.96750       -0.68790
H         -0.26380        1.88260        1.01180
H         -0.82180       -0.45580        0.32990
H          0.13010       -1.55300       -1.70780
H          2.57360       -0.78010       -2.28580
H          1.89570        0.87720       -2.17100
