17
gdb 10299	2.72307	1.49199	1.20673	2.4026	64.27	-0.2754	0.0194	0.2949	1055.3434	0.140393	-401.010417	-401.001081	-401.000137	-401.044467	33.01
C          0.02670        1.54930       -0.01180
C          0.00580        0.02540        0.08550
O          0.69330       -0.44730        1.23160
C         -1.43230       -0.56220        0.02150
C         -1.41830       -2.10780       -0.08520
O         -2.71260       -2.66120       -0.15120
C         -2.18950       -0.16540        1.21090
N         -2.75390        0.11620        2.18070
H          1.05770        1.90730        0.04580
H         -0.40910        1.89290       -0.95530
H         -0.54320        2.00190        0.80760
H          0.55310       -0.39920       -0.76430
H          0.30760       -0.02270        2.00780
H         -1.95060       -0.16380       -0.85860
H         -0.91850       -2.37650       -1.02100
H         -0.82560       -2.51270        0.74400
H         -3.12570       -2.56840        0.71440
