16
gdb 19125	3.35312	1.79032	1.35038	1.6254	70.68	-0.2599	0.0253	0.2851	931.8485	0.128728	-346.529839	-346.522062	-346.521118	-346.561918	29.405
C         -0.16320       -1.27540        0.57110
C         -0.10410       -0.10590        0.30050
C         -0.08360        1.30120       -0.03200
C          0.70940        2.22080        0.81220
O          1.18950        1.81370       -0.46730
C         -1.27980        1.79760       -0.79850
C         -1.18500        3.05440       -1.62090
C         -1.28280        1.71290       -2.30370
H         -0.20280       -2.30950        0.81030
H          0.39320        3.26020        0.88460
H          1.26010        1.82600        1.66350
H         -2.22130        1.59770       -0.29620
H         -2.04500        3.71420       -1.63930
H         -0.22260        3.55140       -1.65760
H         -0.38480        1.33640       -2.78050
H         -2.20810        1.44210       -2.79900
