15
gdb 21191	7.05405	1.31162	1.12358	2.9722	64.88	-0.2281	0.0167	0.2447	1047.6664	0.1192	-395.997447	-395.989418	-395.988474	-396.030097	27.909
C          0.08630        1.44090       -0.00610
N          0.00310       -0.00780        0.06330
C          0.60630       -0.72670        1.03260
N          0.77030       -2.02530        1.07080
C          1.38810       -2.18620        2.28770
C          1.79380       -3.51820        2.81880
N          1.60480       -1.08770        2.96340
O          1.07330       -0.07840        2.10450
H          1.07890        1.79670       -0.31190
H         -0.65360        1.79970       -0.72400
H         -0.14510        1.86820        0.97160
H         -0.17630       -0.52420       -0.78230
H          2.49150       -4.00330        2.12950
H          2.26870       -3.40910        3.79480
H          0.91990       -4.16980        2.91280
