19
gdb 13903	2.8976	1.56838	1.46116	3.212	73.03	-0.2414	0.0292	0.2706	998.7801	0.164704	-365.095597	-365.086322	-365.085378	-365.129241	33.785
C         -0.13320        1.29920        0.67950
C          0.12410       -0.08380        0.12050
C          0.59120       -0.33860       -1.28210
C          0.85410        0.75850       -2.29130
C          1.53380       -0.63770       -0.11210
C          2.75350        0.18530        0.14780
N          3.81950       -0.53250        0.62440
O          2.84560        1.38780       -0.04960
H          0.63160        2.01130        0.37170
H         -1.11300        1.66330        0.35080
H         -0.14140        1.27260        1.77470
H         -0.55640       -0.83690        0.51200
H          0.19130       -1.24530       -1.73090
H          1.36690        1.60880       -1.84370
H          1.48230        0.38330       -3.10650
H         -0.08920        1.10070       -2.73170
H          1.65790       -1.69220        0.11710
H          3.73130       -1.48610        0.92720
H          4.63630       -0.01430        0.90430
