13
gdb 5164	8.01949	1.26192	1.09035	2.2057	63.12	-0.2182	0.0049	0.223	1010.1421	0.097445	-394.813323	-394.806423	-394.805479	-394.845195	24.561
N         -0.17880        1.29560        0.01010
C         -0.03450        0.04630        0.00350
O         -1.16550       -0.72750        0.00820
C         -1.00590       -2.07110        0.00110
N          0.09870       -2.76380       -0.00990
C         -0.32380       -4.08400       -0.01280
C         -1.68550       -4.15930       -0.00350
N         -2.12160       -2.84110        0.00550
H          0.73450        1.74590        0.00540
H          0.88060       -0.54710       -0.00590
H          0.38910       -4.89330       -0.02150
H         -2.37530       -4.98560       -0.00220
H         -3.06910       -2.50340        0.01380
