16
gdb 16527	3.61305	2.41489	1.84283	1.9544	62.91	-0.2383	0.0626	0.3009	743.7568	0.131892	-383.69951	-383.693239	-383.692295	-383.729447	25.64
O         -0.07220        1.31290       -0.00060
C          0.01300       -0.07550       -0.01150
C          1.01010       -0.74540       -0.95880
O          0.42340       -2.00520       -1.29540
C         -0.62810       -2.23300       -0.36420
C         -0.09470       -2.31560        1.10650
C         -0.41780       -0.82750        1.24230
C         -1.25850       -0.85970       -0.03620
H          0.61580        1.65240        0.58160
H          1.12840       -0.14260       -1.86660
H          2.00190       -0.89460       -0.50770
H         -1.24350       -3.05200       -0.73210
H         -0.74970       -2.92400        1.73660
H          0.94070       -2.65190        1.22620
H         -0.62110       -0.27910        2.15520
H         -2.23390       -0.45720       -0.27050
