18
gdb 6685	5.19886	0.74816	0.7305	0.7	82.53	-0.247	0.0405	0.2874	1616.3096	0.150539	-310.613675	-310.603803	-310.602859	-310.650603	34.603
C          0.36290        1.31050        0.25910
C         -0.17690       -0.10050       -0.04810
C         -1.71740       -0.11290       -0.10330
C          0.39970       -0.62810       -1.28550
C          0.86760       -1.05070       -2.31080
C          1.43850       -1.56770       -3.55670
C          2.24080       -2.78000       -3.37740
C          2.90090       -3.77390       -3.24380
H          1.45400        1.30870        0.32460
H          0.07150        2.01390       -0.52720
H         -0.04110        1.67250        1.21000
H          0.13380       -0.76320        0.77180
H         -2.07950        0.54210       -0.90180
H         -2.09610       -1.12040       -0.29380
H         -2.13380        0.24040        0.84550
H          0.63220       -1.77350       -4.27450
H          2.05920       -0.79260       -4.02760
H          3.48350       -4.65270       -3.11950
