20
gdb 12964	2.21394	2.17804	1.77174	1.3218	75.34	-0.2425	0.0735	0.316	920.1213	0.176312	-348.980497	-348.971909	-348.970965	-349.01278	32.892
C         -0.04650        1.56510       -0.02760
C          0.09190        0.05830        0.07170
C          1.33530       -0.73780       -0.22090
C          2.58580       -0.00580        0.27510
C          1.99290       -0.06450        1.72440
O          1.78850        1.12830        2.45750
C          0.72060       -0.72660        1.19880
C         -0.02100       -1.79370        1.95570
H          0.80240        2.08950        0.41040
H         -0.15130        1.87480       -1.07410
H         -0.94080        1.89990        0.50910
H         -0.79380       -0.46360       -0.29080
H          1.33990       -1.55280       -0.93580
H          3.50830       -0.58270        0.17450
H          2.75180        0.99600       -0.13260
H          2.56000       -0.78830        2.32750
H          2.64050        1.42540        2.79260
H         -0.58380       -1.36500        2.79370
H         -0.73690       -2.31310        1.31020
H          0.66360       -2.54510        2.36730
