14
gdb 9087	4.40318	1.04295	0.88425	4.1723	60.36	-0.2678	-0.0068	0.261	1211.2849	0.106453	-415.885964	-415.877426	-415.876482	-415.920188	29.046
O         -0.45070        1.24010        0.02740
C          0.10430       -0.05830       -0.12500
C          1.12200       -0.10630       -1.28110
N          0.50430        0.35470       -2.50310
C          0.41140       -0.42430       -3.61910
O          0.88250       -1.53420       -3.73340
C          0.71530       -0.53460        1.12800
N          1.22470       -0.87310        2.10830
H          0.21010        1.80740        0.44260
H         -0.74020       -0.70980       -0.37240
H          1.99110        0.51130       -1.01870
H          1.46890       -1.12760       -1.45260
H          0.01330        1.23470       -2.47420
H         -0.14530        0.08650       -4.42800
