10
gdb 14562	232663.78879	0.57031	0.57031	0.0096	119.42	-0.2383	-0.0774	0.1609	1770.3454	0.058203	-305.7702	-305.762411	-305.761467	-305.797957	27.635
C          0.10360       -7.69530       -0.04210
C          0.09100       -6.48520       -0.03190
C          0.07500       -5.13510       -0.02330
C          0.05990       -3.91380       -0.01600
C          0.04260       -2.57240       -0.00870
C          0.02490       -1.35120       -0.00320
C          0.00110       -0.00120        0.00060
C         -0.02020        1.20880        0.00530
H          0.11220       -8.75760       -0.05330
H         -0.03510        2.27100        0.01120
