15
gdb 12464	3.75108	1.98123	1.36756	3.1718	67.17	-0.2488	-0.0352	0.2136	868.6869	0.120979	-399.804128	-399.797389	-399.796445	-399.835282	25.3
N          0.01470        0.94640        1.08280
C          0.07390        0.12840        0.10880
O          1.28620       -0.31880       -0.33750
C          1.39700       -0.99890       -1.57550
O          0.81190       -2.25960       -1.55660
C         -0.52990       -2.28970       -2.00080
C         -1.45650       -1.31080       -1.35230
C         -1.19240       -0.32030       -0.49470
H          0.95970        1.17010        1.40190
H          0.98660       -0.37930       -2.38630
H          2.47140       -1.13560       -1.71090
H         -0.57380       -2.14580       -3.09580
H         -0.88370       -3.31040       -1.81220
H         -2.49500       -1.44630       -1.65050
H         -2.02130        0.27070       -0.12100
