20
gdb 14048	4.22415	1.57578	1.48103	1.5721	74.01	-0.2418	0.0795	0.3213	948.2687	0.179068	-348.999261	-348.991724	-348.99078	-349.0318	28.607
C          0.09690        1.66710       -0.13320
C          1.61610        1.44380        0.09720
C          1.29530        0.00730        0.61260
C         -0.11240        0.13080       -0.02890
C          2.23750       -1.14330        0.23530
C          3.21000       -1.22660        1.43590
O          2.67390       -0.38740        2.46270
C          1.32300       -0.10420        2.13930
H         -0.37410        2.20350        0.69490
H         -0.20130        2.14930       -1.06660
H          2.17270        1.42210       -0.84500
H          2.13400        2.11300        0.78940
H         -0.95870       -0.22820        0.56510
H         -0.15620       -0.34710       -1.01230
H          1.66720       -2.07360        0.13430
H          2.75230       -0.97040       -0.71350
H          3.31030       -2.25750        1.80310
H          4.21300       -0.85770        1.19570
H          1.03750        0.81420        2.66160
H          0.65100       -0.91470        2.47480
