14
gdb 11936	3.32385	1.84372	1.509	4.1549	64.46	-0.2303	0.0046	0.2349	848.9048	0.107253	-378.677729	-378.670349	-378.669404	-378.709361	27.247
O          0.04780        1.43400        0.08160
C         -0.00770        0.06630        0.04470
C         -0.29600       -0.75780       -1.16690
C         -1.18580       -0.95220        0.04960
N         -0.45830       -1.82980        0.99560
C          0.60820       -0.77760        1.15570
C         -2.59540       -0.79190        0.04380
N         -3.74490       -0.64720        0.06400
H          0.14850        1.77700       -0.81210
H         -0.77320       -0.21350       -1.97750
H          0.34610       -1.58210       -1.46880
H         -0.98460       -1.93210        1.85810
H          1.62680       -1.14630        0.99760
H          0.54900       -0.25600        2.11520
