14
gdb 16259	3.29243	1.99255	1.42331	3.2638	70.57	-0.2435	-0.0168	0.2267	863.9622	0.10583	-345.362057	-345.35492	-345.353976	-345.393316	27.206
O         -0.03730        0.03250       -0.06850
C         -0.01870        1.22050        0.05350
C         -1.13450        2.29200        0.17520
C         -0.05080        3.35840       -0.02370
C          0.94700        3.25860        1.06470
C          1.07210        2.26130       -0.10000
C          2.24190        2.16510       -0.89830
C          3.22450        2.06260       -1.58510
H         -1.82840        2.19170       -0.66410
H         -1.70270        2.33500        1.10900
H         -0.12380        4.21220       -0.68310
H          1.74450        3.99330        1.07330
H          0.65610        2.89530        2.04670
H          4.09010        1.96710       -2.19250
