22
gdb 9145	4.69943	0.7413	0.68581	0.0846	88.54	-0.2386	0.0599	0.2985	1767.8689	0.198128	-313.061291	-313.050647	-313.049703	-313.098145	37.182
C          0.17080        1.41690       -0.44700
C         -0.04650        0.16700        0.42560
C         -1.40100       -0.36950        0.33000
C         -2.52650       -0.78840        0.22700
C         -3.88670       -1.32150        0.13150
C         -3.86230       -2.78540       -0.35410
C         -4.63140       -1.14950        1.47900
C         -6.12140       -1.49750        1.42160
H          1.19670        1.78330       -0.34340
H         -0.00970        1.19010       -1.50130
H         -0.51310        2.21820       -0.15380
H          0.67550       -0.60830        0.13760
H          0.17780        0.41000        1.47250
H         -4.43040       -0.72930       -0.62000
H         -3.36260       -3.42490        0.38070
H         -4.87530       -3.16630       -0.51130
H         -3.31750       -2.86880       -1.29800
H         -4.12920       -1.76430        2.23620
H         -4.51260       -0.10950        1.80180
H         -6.60370       -1.28810        2.38140
H         -6.63740       -0.90620        0.65630
H         -6.29010       -2.55450        1.19500
