12
gdb 23684	3.67664	2.02946	1.30765	2.5127	62.33	-0.2183	-0.0475	0.1708	835.1142	0.08438	-422.658546	-422.652396	-422.651451	-422.688968	23.447
F          0.12070        0.07740        0.00180
C         -0.05640        1.37870        0.01110
C         -1.25840        1.97720        0.03070
C         -1.24900        3.41440        0.03830
C         -0.08810        4.10540        0.02610
C          1.18950        3.42800        0.00500
N          2.32330        3.98970       -0.00750
O          1.11260        2.00740       -0.00150
H         -2.16340        1.38910        0.04000
H         -2.19680        3.94110        0.05400
H         -0.04760        5.18590        0.03130
H          3.07980        3.30700       -0.02140
