15
gdb 18658	3.25639	2.3367	1.59361	2.904	66.2	-0.2299	-0.0201	0.2099	798.1511	0.120733	-362.665043	-362.658616	-362.657672	-362.6956	25.127
O          0.06670       -0.01690        0.14320
C         -0.00420        1.18610        0.02690
C         -1.33540        1.91960       -0.09930
C         -1.30650        3.03690       -1.11530
C         -0.18290        3.65830       -1.47020
C          1.12380        3.31010       -0.85380
N          1.16860        3.35030        0.61900
C          1.22220        2.03620       -0.06150
H         -2.10580        1.17790       -0.32480
H         -1.57460        2.33760        0.89010
H         -2.25820        3.33400       -1.54600
H         -0.19550        4.45880       -2.20340
H          2.01820        3.61520       -1.39020
H          2.10620        3.58830        0.93410
H          2.15470        1.48050       -0.06760
