16
gdb 3084	3.38022	2.32761	1.90826	4.1687	65.07	-0.2805	0.0318	0.3122	757.0309	0.136342	-288.654312	-288.646579	-288.645635	-288.685936	27.653
C         -0.09800        1.56680        0.08580
C          0.02340        0.06520       -0.04340
C          0.68820       -0.61400       -1.20820
C          1.30280        0.13570       -2.36870
C          1.36040       -0.65080        0.16700
C          2.55010        0.11650        0.39870
N          3.50860        0.73920        0.58260
H          0.79870        2.08770       -0.25620
H         -0.94850        1.93480       -0.49770
H         -0.26100        1.84950        1.13060
H         -0.81480       -0.47910        0.38360
H          0.25300       -1.56990       -1.48730
H          1.82300        1.04140       -2.05010
H          2.03210       -0.49370       -2.88820
H          0.53200        0.42270       -3.09160
H          1.34090       -1.59250        0.70500
