15
gdb 16113	4.67121	1.65473	1.45077	1.2625	67.6	-0.251	0.0329	0.2839	867.8527	0.119742	-362.602876	-362.596045	-362.595101	-362.633672	26.461
C         -0.01090       -1.19740        0.10800
C          0.03620        0.00240        0.04990
C          0.05250        1.42930       -0.07120
C         -0.87060        2.09760       -1.09210
O         -0.39420        3.43230       -1.20930
C          1.02100        3.40570       -1.03830
C          1.27190        2.29850       -0.03100
N          0.37290        2.24440        1.12040
H         -0.04350       -2.25660        0.17610
H         -0.81190        1.55390       -2.04720
H         -1.91710        2.14390       -0.77620
H          1.54210        3.18140       -1.98260
H          1.32810        4.39990       -0.69740
H          2.27080        1.90120        0.11200
H         -0.22760        3.06930        1.12860
