10
gdb 23723	6.08199	1.52858	1.22156	2.2765	50.76	-0.2763	-0.0665	0.2098	832.2418	0.061003	-462.759068	-462.753481	-462.752537	-462.789048	20.654
F          0.00170        0.02780        0.00380
C         -0.01640        1.35790        0.01080
C         -1.21580        2.05520        0.03000
N         -1.23620        3.38820        0.03700
C         -0.05190        3.97560        0.02440
F         -0.06980        5.29310        0.03150
N          1.14790        3.42080        0.00600
C          1.16370        2.08760       -0.00100
H         -2.16690        1.52990        0.03980
H          2.12880        1.58850       -0.01610
