18
gdb 17080	5.86053	1.13751	1.02817	2.1332	68.22	-0.2454	0.0746	0.32	1154.0329	0.153135	-384.885082	-384.877158	-384.876214	-384.918537	28.563
C          0.32640        1.45150        0.07650
C          1.17250        0.20260       -0.08630
C         -0.33420        0.12420       -0.08730
O         -1.00940       -0.37780        1.02820
C         -1.17820       -1.77040        1.01230
C         -0.07610       -2.66990        1.62540
O         -1.03570       -3.27440        2.51760
C         -2.04270       -2.30240        2.16460
H          0.28340        1.89050        1.06660
H          0.27210        2.16180       -0.74050
H          1.70130        0.04430       -1.01990
H          1.68790       -0.15720        0.79650
H         -0.82920       -0.09420       -1.03440
H         -1.50540       -2.11050        0.02100
H          0.40390       -3.40870        0.97440
H          0.68970       -2.09870        2.16650
H         -2.19430       -1.55100        2.95060
H         -2.99990       -2.76950        1.91020
