16
gdb 6661	7.09066	0.86983	0.81608	3.9336	67.81	-0.2486	0.0513	0.2999	1354.6021	0.129524	-379.929239	-379.920085	-379.919141	-379.963605	32.524
N         -0.03420        1.25620       -0.06560
C         -0.25680       -0.10310       -0.25600
O          0.25550       -0.73630       -1.16110
N         -1.08540       -0.67700        0.68290
C         -1.23160       -2.12500        0.72350
C         -2.21450       -2.63640       -0.35210
C         -2.41180       -4.07690       -0.27090
C         -2.55490       -5.26630       -0.17040
H          0.37850        1.69270       -0.87620
H         -0.77540        1.79740        0.35410
H         -1.23880       -0.17520        1.54200
H         -0.26080       -2.60680        0.57180
H         -1.59770       -2.39930        1.71590
H         -3.17350       -2.11630       -0.23850
H         -1.81300       -2.36160       -1.33300
H         -2.68710       -6.31730       -0.10060
