20
gdb 12784	3.39154	1.61227	1.35044	1.008	75.75	-0.24	0.0861	0.3261	1019.2529	0.176246	-348.971847	-348.963382	-348.962438	-349.00453	31.711
C         -0.22390        1.32630        0.09210
O          0.33240        0.05090       -0.12870
C          0.77660       -0.57420        1.04990
C         -0.28270       -1.20540        2.02330
C          0.39910       -2.55990        1.81210
C          0.35850       -2.90890        0.35070
C          1.41090       -1.94500        0.83030
C          2.88450       -2.17620        0.65390
H          0.50300        2.01280        0.55540
H         -0.51700        1.72840       -0.88080
H         -1.11340        1.28370        0.73890
H          1.45470        0.09830        1.59900
H         -0.20860       -0.81440        3.04060
H         -1.32490       -1.14600        1.69190
H          0.57730       -3.30320        2.57980
H          0.73640       -3.89350        0.09260
H         -0.46260       -2.56590       -0.27310
H          3.22300       -1.83150       -0.33040
H          3.46880       -1.64180        1.41220
H          3.13020       -3.24040        0.73270
