14
gdb 4359	4.17317	1.83212	1.28323	1.1739	66.24	-0.2563	-0.0246	0.2317	899.3134	0.109262	-378.800302	-378.793489	-378.792545	-378.831578	25.189
C         -0.05970        1.50890       -0.03520
C          0.01680        0.00960        0.03150
N          0.14910       -0.63890       -1.14450
C          0.21620       -1.96090       -1.07980
N          0.16790       -2.72480        0.01610
C          0.03750       -2.06940        1.16480
O         -0.01580       -2.79160        2.29410
C         -0.04450       -0.67690        1.23500
H          0.84110        1.90830       -0.51170
H         -0.90800        1.81260       -0.65670
H         -0.16620        1.95650        0.95530
H          0.32280       -2.49110       -2.02370
H          0.05720       -3.71890        2.02460
H         -0.15050       -0.17470        2.18800
