16
gdb 15784	6.03002	1.05398	0.9876	3.5168	65.18	-0.259	0.0214	0.2804	1154.0064	0.130543	-379.900719	-379.892445	-379.8915	-379.933945	29.524
O         -1.00450        0.67150        0.16350
C         -0.20010       -0.46990       -0.06630
C          0.84690       -0.23200       -1.17660
C          0.25060        0.17500       -2.44640
N         -0.21970        0.49670       -3.45120
C          0.47810       -0.97180        1.20250
C          0.94860       -0.02620        2.24570
N         -0.23100       -0.87840        2.47880
H         -0.43750        1.44680        0.24030
H         -0.90170       -1.23830       -0.41180
H          1.55850        0.53770       -0.85150
H          1.42920       -1.14690       -1.33460
H          1.02280       -1.90500        1.06580
H          1.82240       -0.26690        2.84380
H          0.78770        1.03870        2.09620
H         -1.06650       -0.31330        2.33030
