11
gdb 23642	3.93092	1.97423	1.3142	6.016	55.34	-0.2511	-0.0578	0.1933	811.7922	0.073943	-438.757157	-438.751263	-438.750319	-438.787422	22.048
F          0.01860        0.06480        0.00370
C         -0.01680        1.38990        0.01080
N         -1.17920        1.94000        0.02940
C         -1.27450        3.32100        0.03770
O         -2.30270        3.95400        0.05490
N         -0.02970        4.01340        0.02430
C          1.17490        3.40350        0.00500
C          1.24500        2.04540       -0.00290
H         -0.10700        5.02030        0.03050
H          2.04770        4.04580       -0.00360
H          2.17640        1.50120       -0.01820
