18
gdb 6764	3.26028	1.45575	1.13602	2.932	65.78	-0.2403	-0.0378	0.2025	1083.6533	0.151769	-422.077472	-422.068364	-422.067419	-422.112062	32.035
C          0.23280        0.66280       -0.50650
C         -0.08770       -0.56750        0.30320
O          0.77580       -1.32130        0.70640
C         -1.57770       -0.87210        0.52560
O         -2.01560       -1.63170       -0.59400
C         -2.35170       -2.99290       -0.33440
C         -1.16630       -3.91390       -0.04160
O         -0.60390       -3.72200        1.23900
H          1.30310        0.72940       -0.70210
H         -0.32620        0.62720       -1.44860
H         -0.10630        1.55830        0.02790
H         -1.70030       -1.41900        1.46450
H         -2.16150        0.05680        0.55940
H         -3.06500       -3.05150        0.50090
H         -2.85670       -3.33250       -1.24570
H         -1.53680       -4.94690       -0.08250
H         -0.41820       -3.80220       -0.84050
H          0.02610       -2.98520        1.18330
