9
gdb 3839	5.73328	3.23881	2.20099	3.0301	49.5	-0.2588	-0.092	0.1668	534.7751	0.056288	-367.635675	-367.630625	-367.629681	-367.664512	18.324
N         -0.07740        1.19380       -0.25240
C         -0.01940       -0.00590        0.13860
N          1.18430       -0.69350        0.45760
N          1.21760       -1.91780        0.18140
N          0.06160       -2.45480       -0.32120
N         -1.16130       -1.96990        0.09340
N         -1.21250       -0.74630        0.35380
H          0.87000        1.57430       -0.32320
H          0.08500       -3.46650       -0.35350
