13
gdb 6244	4.58286	1.24057	0.98228	5.945	64.01	-0.2563	-0.0577	0.1986	1113.5082	0.092516	-398.617103	-398.608448	-398.607504	-398.651246	29.292
C         -0.00690        1.50590       -0.17540
C         -0.01510        0.02350        0.16250
O         -0.03950       -0.41170        1.28250
N          0.00930       -0.78780       -0.98810
C          0.00990       -2.18430       -1.04860
O         -0.01090       -2.92710       -0.10120
C          0.03980       -2.65900       -2.42840
C          0.06420       -3.07710       -3.55560
H          0.89160        1.77100       -0.74300
H         -0.87780        1.77170       -0.78410
H         -0.02820        2.07370        0.75370
H          0.02890       -0.31760       -1.88120
H          0.08560       -3.46500       -4.54520
