15
gdb 4189	4.85849	1.6329	1.32915	1.1915	72.55	-0.2185	-0.0328	0.1857	901.5222	0.120139	-362.621188	-362.61458	-362.613636	-362.651726	26.128
O         -0.09070        1.33250        0.01260
N          0.03500       -0.06720        0.04190
C         -1.10950       -0.63960       -0.00070
C         -2.46150       -0.06460       -0.03490
C         -3.37470       -1.04810        0.03670
C         -2.73800       -2.39720        0.07100
C         -1.95120       -2.76190       -1.17360
C         -1.24570       -2.12920        0.01120
H          0.82770        1.61800        0.05940
H         -2.65180        0.99440       -0.12690
H         -4.44930       -0.90670        0.03010
H         -3.16190       -3.18960        0.67680
H         -1.74740       -3.81320       -1.34820
H         -2.10870       -2.16890       -2.06780
H         -0.52340       -2.72080        0.55780
