17
gdb 12547	3.44778	1.81498	1.25841	1.3402	65.61	-0.2405	0.0171	0.2576	939.4428	0.143631	-400.998665	-400.991119	-400.990174	-401.030624	28.195
O         -0.12770        1.45880       -0.03440
C         -0.00390        0.04340        0.02530
C         -1.41210       -0.52630       -0.06750
C         -1.46790       -2.00740        0.26720
O         -0.89830       -2.89870       -0.69740
C          0.40720       -2.81810       -1.07470
N          1.20980       -1.85860       -1.22390
C          0.90430       -0.44760       -1.11160
H          0.75610        1.83930        0.00300
H          0.43550       -0.26430        0.99020
H         -2.04730        0.00480        0.65060
H         -1.82720       -0.34370       -1.06570
H         -0.97990       -2.18950        1.23530
H         -2.50590       -2.33790        0.34800
H          0.74850       -3.82390       -1.32590
H          0.45170       -0.11490       -2.05730
H          1.86260        0.08360       -1.03240
