18
gdb 13359	6.20222	0.9895	0.90019	0.166	82.15	-0.2386	0.0262	0.2648	1313.8684	0.153856	-310.661044	-310.65258	-310.651636	-310.696057	30.02
C          0.25050        1.58410       -0.40010
C          0.12080        0.15520       -0.15040
C          0.01670       -1.02780        0.05210
C         -0.11880       -2.45450        0.30890
C          0.37050       -2.91400        1.71920
C         -0.53740       -4.08020        2.02530
C         -1.58750       -4.12770        1.20770
C         -1.57780       -3.00200        0.20220
H          0.98570        1.78750       -1.18680
H         -0.70230        2.02210       -0.71850
H          0.57430        2.11940        0.49970
H          0.48040       -3.00330       -0.42880
H          1.43450       -3.17290        1.71510
H          0.24600       -2.11220        2.45920
H         -0.35400       -4.75990        2.85030
H         -2.39280       -4.85200        1.26270
H         -2.30900       -2.22760        0.46980
H         -1.81830       -3.31990       -0.81770
