15
gdb 8560	3.07944	2.69136	1.76434	2.3084	60.63	-0.2185	0.0476	0.266	745.7233	0.118754	-399.702935	-399.69624	-399.695296	-399.733227	26.867
O         -0.06370        1.32160        0.16600
C          0.07560       -0.05000        0.02850
C          0.90400       -0.89650       -0.91290
N          0.01870       -2.06530       -0.50630
C          0.39210       -2.27770        0.95870
C         -0.26060       -0.95130        1.24370
O         -0.57910       -0.40280        2.46260
C         -1.04750       -1.04670       -0.04340
H          0.75800        1.67250        0.53210
H          0.73700       -0.66420       -1.96830
H          1.97370       -1.04660       -0.72480
H         -0.16110       -3.13530        1.35020
H          1.46450       -2.40850        1.14450
H         -0.66650        0.55180        2.33030
H         -2.08160       -1.02400       -0.35590
