17
gdb 5585	3.24809	1.88683	1.21173	1.272	72.61	-0.1754	0.0489	0.2243	991.1532	0.142241	-363.890356	-363.881952	-363.881008	-363.923644	30.192
C         -0.00170        1.41070        0.05650
O          0.02230        0.00060        0.02560
C          0.61740       -0.56090       -1.06730
C          0.70230       -1.92900       -1.23490
C          0.21930       -3.03840       -0.36510
N          1.35880       -2.12700       -2.43320
C          1.68130       -0.93070       -3.01080
C          1.23290        0.07620       -2.18360
H          1.01240        1.83430        0.05910
H         -0.55260        1.82630       -0.79880
H         -0.50940        1.69500        0.98060
H         -0.51750       -3.67810       -0.86860
H          1.03430       -3.68790       -0.01940
H         -0.26140       -2.61230        0.51820
H          1.56700       -3.02990       -2.82120
H          2.19910       -0.88590       -3.95490
H          1.33630        1.13370       -2.36270
