20
gdb 7185	6.2948	0.78807	0.73704	3.0668	73.43	-0.2505	-0.021	0.2294	1535.5593	0.173481	-386.143252	-386.13311	-386.132166	-386.179303	34.316
C         -0.02910        1.39920       -0.04650
O          0.00740       -0.00700       -0.00420
C         -1.27450       -0.59230        0.03000
C         -1.12240       -2.11100        0.12110
C         -0.37260       -2.52340        1.39440
C         -2.50420       -2.78640        0.02480
C         -2.39990       -4.28460       -0.15280
O         -2.97830       -5.10590        0.50980
H          1.00430        1.75320       -0.07050
H         -0.55190        1.76780       -0.94350
H         -0.52990        1.82220        0.83870
H         -1.84690       -0.21600        0.89720
H         -1.84370       -0.31970       -0.87610
H         -0.52780       -2.42010       -0.75020
H         -0.94710       -2.25100        2.28790
H         -0.20410       -3.60440        1.42850
H          0.59470       -2.02000        1.44550
H         -3.12080       -2.58060        0.90560
H         -3.03590       -2.40080       -0.85850
H         -1.72330       -4.59440       -0.98530
