17
gdb 7049	5.78316	0.83985	0.75866	4.3385	78.11	-0.2601	0.0257	0.2858	1471.7325	0.140056	-326.728243	-326.718536	-326.717592	-326.764583	32.674
C          0.01210        1.48050       -0.01760
C          0.02020        0.02450       -0.01890
C          0.02840       -1.17970       -0.00620
C          0.02640       -2.64110       -0.01860
C         -1.38980       -3.21320        0.17890
C          0.67130       -3.14450       -1.34360
C          0.82370       -4.59710       -1.38010
N          0.94010       -5.74700       -1.38930
H          0.64440        1.88050        0.78260
H          0.38560        1.88070       -0.96650
H         -1.00010        1.87200        0.13160
H          0.65850       -3.00080        0.80360
H         -1.36470       -4.30640        0.18410
H         -1.80840       -2.86930        1.12750
H         -2.05470       -2.88200       -0.62480
H          0.05560       -2.82870       -2.19290
H          1.65520       -2.68350       -1.47300
