17
gdb 16876	4.11362	1.82278	1.39483	2.9841	67.91	-0.2215	-0.0088	0.2127	885.9743	0.14421	-363.865671	-363.85886	-363.857916	-363.896639	26.989
O          0.01290        0.68740       -1.36650
C         -0.03760        1.28980       -0.32200
C         -1.35970        1.85400        0.21550
N         -1.16770        2.42470        1.54290
C         -0.19660        3.48560        1.54850
C          0.96220        3.35930        2.50520
C          1.14820        3.01510        1.04640
C          1.18050        1.57160        0.55450
H         -1.74130        2.56240       -0.54240
H         -2.07810        1.02880        0.26520
H         -2.04160        2.69140        1.97720
H         -0.52440        4.48820        1.26610
H          1.42600        4.26820        2.87280
H          0.91850        2.54210        3.21660
H          1.71760        3.71740        0.44720
H          1.13790        0.87820        1.40290
H          2.08210        1.34250       -0.01720
