18
gdb 7149	7.31707	0.75163	0.69337	2.1213	66.03	-0.2471	-0.0122	0.2349	1598.0336	0.150026	-422.06938	-422.059314	-422.05837	-422.106172	33.167
C         -0.12830        1.41770        0.01140
O          0.00870        0.01590        0.00180
C         -1.21660       -0.64800        0.01040
C         -1.00410       -2.16060       -0.00010
O          0.09520       -2.65740       -0.01330
C         -2.27930       -2.98800        0.00740
C         -2.01440       -4.48640       -0.00260
O         -3.27830       -5.13390        0.00570
H          0.87890        1.84020        0.00370
H         -0.67490        1.78220       -0.87300
H         -0.65690        1.77180        0.91080
H         -1.82040       -0.38880        0.90060
H         -1.83820       -0.37900       -0.86450
H         -2.87950       -2.72240        0.88770
H         -2.89530       -2.71360       -0.85910
H         -1.42600       -4.75000       -0.89260
H         -1.40990       -4.75900        0.87390
H         -3.12580       -6.08320       -0.00060
