10
gdb 23843	5.97828	1.62718	1.27905	0.537	51.95	-0.2609	-0.1006	0.1603	815.3785	0.061672	-454.765739	-454.759957	-454.759013	-454.795892	21.287
F          0.02050        0.04160        0.00290
C         -0.03830        1.35580        0.01060
N         -1.21320        1.88640        0.02920
N         -1.21500        3.23460        0.03660
C         -0.10600        4.07010        0.02620
O         -0.18550        5.28240        0.03430
C          1.13660        3.27850        0.00560
N          1.16890        1.98520       -0.00190
H         -2.13190        3.66260        0.05130
H          2.07280        3.83200       -0.00370
