16
gdb 5316	4.65096	1.70734	1.27423	1.8192	68.34	-0.193	0.0327	0.2257	939.9648	0.131296	-379.947201	-379.939322	-379.938378	-379.979686	27.883
C         -0.05420        1.40210        0.03540
N         -0.20780       -0.04190       -0.01880
C          0.11030       -0.78440        1.18820
C         -0.05720       -0.63420       -1.23800
N          0.00690       -0.05450       -2.40430
C          0.07870       -1.12010       -3.29750
C          0.06850       -2.28760       -2.62540
O         -0.01600       -1.98860       -1.27500
H          0.99960        1.70640        0.12560
H         -0.46020        1.83900       -0.87650
H         -0.60260        1.78630        0.90060
H         -0.42550       -0.33620        2.02980
H         -0.20930       -1.82090        1.08420
H          1.18690       -0.77160        1.42000
H          0.13810       -0.95760       -4.36230
H          0.11780       -3.33120       -2.87880
