11
gdb 355	10.0137	2.20959	1.83112	5.2806	45.79	-0.2505	-0.0726	0.178	633.9378	0.083118	-322.454079	-322.447243	-322.446299	-322.485128	21.909
C          0.03170        1.45170       -0.03520
N         -0.09700        0.00970       -0.12170
C         -1.24940       -0.64420        0.19280
O         -2.27470       -0.11950        0.57110
C         -1.11880       -2.16730        0.01520
O         -2.01820       -2.92430        0.23880
H          0.81460        1.73700        0.67550
H          0.26710        1.88730       -1.01210
H         -0.92630        1.84190        0.31040
H          0.69770       -0.52940       -0.42630
H         -0.12220       -2.52730       -0.33920
