13
gdb 20145	4.45323	2.57017	2.10767	4.3162	59.19	-0.2403	-0.0161	0.2243	646.4866	0.097346	-361.416811	-361.41167	-361.410726	-361.445884	21.182
O         -0.00970        0.01830        0.09090
C         -0.04780        1.20970        0.02650
C         -1.22410        2.13670       -0.00770
C         -0.80350        3.42800        0.66740
C         -0.82420        3.34610       -0.83080
C          0.74140        3.27140       -0.83520
C          0.76170        3.35150        0.63710
N          1.11970        2.07720       -0.03700
H         -2.24040        1.77270        0.02630
H         -1.42540        3.98880        1.34870
H         -1.46550        3.83020       -1.55180
H          1.42280        3.62280       -1.59790
H          1.46330        3.78240        1.33820
