18
gdb 7660	3.13972	2.2452	1.57216	2.9572	67.92	-0.24	0.0631	0.3031	850.5434	0.153834	-384.887531	-384.880173	-384.879228	-384.918414	30.097
C         -0.13620        1.54750       -0.08330
C          0.02820        0.03250       -0.06820
O         -1.24800       -0.53590       -0.39540
C          1.29820       -0.64610       -0.69670
C          2.07490       -0.16440        0.56180
C          0.72400       -0.69820        1.12050
C          0.97000       -1.92530        0.16210
O         -0.01690       -2.83710       -0.17780
H         -0.42390        1.88360       -1.08820
H         -0.93680        1.83660        0.60420
H          0.76730        2.09180        0.19050
H         -1.55460       -0.13040       -1.21370
H          1.62890       -0.60070       -1.73640
H          2.95660       -0.75190        0.82510
H          2.27770        0.89970        0.65810
H          0.39420       -0.71220        2.16060
H          1.85660       -2.50850        0.42550
H         -0.80960       -2.31780       -0.37590
