18
gdb 18807	3.02231	2.9262	2.34135	1.3903	69.84	-0.2362	0.0867	0.3229	707.0989	0.157659	-347.773342	-347.767753	-347.766809	-347.802545	24.329
C         -0.05350        1.51080        0.14700
C          1.49130        1.43840       -0.03280
C          2.10600        1.14070        1.33310
O          1.34520        0.11490        1.97640
C          0.79300       -0.77870        1.02180
C          1.82770       -1.15440       -0.07560
C          1.31470        0.08270       -0.83540
C         -0.04720       -0.00680       -0.07810
H         -0.42980        1.89840        1.09840
H         -0.54440        2.03000       -0.68080
H          2.00300        2.26270       -0.53430
H          3.15900        0.83700        1.23570
H          2.06900        2.01780        1.98870
H          0.30070       -1.57210        1.58610
H          2.87760       -1.23260        0.22220
H          1.53620       -2.07170       -0.59640
H          1.40310        0.16160       -1.91990
H         -0.91960       -0.54000       -0.46030
