15
gdb 1172	4.2202	1.86552	1.76295	2.0516	58.82	-0.2598	0.0281	0.2879	780.1821	0.121833	-345.61476	-345.606416	-345.605472	-345.646596	30.608
C          0.01320        1.52540        0.04300
C         -0.07280       -0.00690       -0.02260
O          0.42570       -0.59120        1.19100
C         -1.54350       -0.48430       -0.06930
O         -2.24410       -0.08660        1.08690
C          0.65750       -0.52570       -1.18510
C          1.25640       -0.95030       -2.13720
H          1.04840        1.84600        0.19610
H         -0.34270        1.97250       -0.88940
H         -0.60550        1.88230        0.86880
H          1.34130       -0.31560        1.30390
H         -2.04770       -0.03790       -0.93050
H         -1.54360       -1.57630       -0.19440
H         -1.72010       -0.40290        1.83320
H          1.78490       -1.32850       -2.97750
