10
gdb 20486	5.22225	2.27281	1.60017	4.6443	48.75	-0.2651	-0.0408	0.2243	693.1758	0.061583	-450.516838	-450.511337	-450.510393	-450.54689	19.823
C          0.03590        1.39490       -0.10830
O          1.36680        1.87850        0.21060
C          2.01050        0.79860        0.68840
N          3.18100        0.51260        1.14410
O          3.05860       -0.85870        1.44140
N          1.77890       -1.36710        1.14540
C          1.17080       -0.32710        0.68920
O         -0.04810       -0.01830        0.21190
H         -0.69370        1.93950        0.49660
H         -0.14230        1.52710       -1.17860
