14
gdb 650	5.58407	4.58758	4.13652	1.6655	52.01	-0.2427	0.0923	0.335	437.149	0.122563	-270.411205	-270.406628	-270.405684	-270.438825	18.387
C         -0.06200        1.59540        0.07220
C          1.46220        1.35680       -0.00080
C          1.80050        0.70030        1.35530
C          0.63710       -0.34490        1.36170
C          0.01210        0.05410        0.00720
O          1.19400        0.19160       -0.84470
H         -0.48990        2.07710        0.95590
H         -0.45250        2.02440       -0.85070
H          2.16370        2.06960       -0.43410
H          2.78700        0.23310        1.33530
H          1.76280        1.40390        2.19130
H          0.99620       -1.37580        1.34520
H         -0.05340       -0.22780        2.20130
H         -0.77410       -0.56970       -0.41780
