18
gdb 11479	3.43843	1.51069	1.40086	3.5125	63.59	-0.2417	0.0639	0.3056	965.0761	0.154273	-422.073184	-422.065044	-422.0641	-422.105995	30.106
O          0.39300        0.79840        0.64080
C          0.01060       -0.47840        0.16900
C         -1.47700       -0.51100       -0.17670
C         -2.02140       -1.91160       -0.51490
C         -2.64550       -2.38300        0.80340
O         -1.61170       -2.98340        1.57360
C         -3.13420       -1.05730        1.39390
O         -2.19660       -0.06940        0.99440
H         -0.24420        1.01730        1.33170
H          0.60620       -0.68150       -0.72830
H          0.21610       -1.26820        0.90640
H         -1.67280        0.21090       -0.97950
H         -2.78820       -1.85710       -1.29210
H         -1.24370       -2.60330       -0.84660
H         -3.47390       -3.08760        0.64660
H         -1.94410       -3.13420        2.46420
H         -4.13970       -0.81890        1.01080
H         -3.18450       -1.07310        2.48930
