12
gdb 3855	3.82106	3.36361	1.80201	1.9155	51.95	-0.1995	0.0317	0.2312	645.2745	0.091965	-356.698196	-356.691421	-356.690477	-356.728943	23.989
N          0.16320        1.42200       -0.11640
C         -0.00180        0.02830       -0.04520
C         -1.12030       -0.78610       -0.05110
O         -2.40250       -0.30900       -0.06680
C         -0.62310       -2.10480       -0.01350
N          0.71050       -2.12170        0.01810
N          1.05970       -0.82420       -0.00930
H          0.30730        1.84010        0.79870
H         -0.66900        1.84520       -0.51260
H         -2.99680       -1.02880       -0.29660
H         -1.17660       -3.03340       -0.00040
H          2.03160       -0.56600       -0.03060
