14
gdb 7023	6.04068	0.91532	0.8685	2.3002	65.7	-0.2556	-0.0451	0.2105	1274.0591	0.102635	-382.526769	-382.517959	-382.517015	-382.561776	29.822
O         -0.18140        1.24580        1.30050
C          0.04380        1.32410        0.12320
C          1.42910        1.58670       -0.45730
C          1.35740        2.64360       -1.56030
O          0.61250        2.51360       -2.49710
C          2.26730        3.86160       -1.35780
C          2.19360        4.85900       -2.40950
C          2.13640        5.68520       -3.27820
H         -0.74900        1.21140       -0.64430
H          2.12300        1.83440        0.34830
H          1.75600        0.65420       -0.93670
H          2.01140        4.29740       -0.38070
H          3.29500        3.48930       -1.23820
H          2.08110        6.41360       -4.04910
