16
gdb 15932	3.39425	1.98073	1.5625	2.7213	64.95	-0.2453	-0.0392	0.2062	844.3931	0.129982	-383.712962	-383.705765	-383.704821	-383.744739	26.497
O         -0.75140        1.16680        0.70810
C          0.18150        0.90080       -0.00860
C          1.41590        1.74530       -0.11970
C          1.81480        2.67690        1.04680
C          2.00370        3.85830        0.04640
C          1.55520        2.94920       -1.12700
C          2.66810        2.09030       -1.74910
O          2.51630        1.05850       -0.74340
H          0.18660        0.00740       -0.67180
H          0.98480        2.82110        1.74140
H          2.69980        2.34220        1.59070
H          1.33010        4.69720        0.23070
H          3.02080        4.24790       -0.04810
H          0.75100        3.29430       -1.77490
H          2.44600        1.70050       -2.75000
H          3.67470        2.52640       -1.74890
