16
gdb 18303	3.11431	2.23698	1.92733	1.998	59.74	-0.219	0.0598	0.2788	766.21	0.131697	-420.831765	-420.82498	-420.824036	-420.862545	26.363
O          0.20600        1.33770       -0.06280
C          0.03930       -0.04440       -0.06070
C         -0.47840       -0.67380        1.22600
O         -0.76560        0.26430        2.23060
C         -2.16620        0.53230        2.33310
C         -2.70340        1.05450        1.01100
O         -2.52700        0.10960       -0.03970
C         -1.35420       -0.64420       -0.00710
H          0.23160        1.60640        0.86680
H          0.79420       -0.58000       -0.63230
H         -0.07110       -1.60660        1.60940
H         -2.70070       -0.38060        2.63150
H         -2.28030        1.28330        3.11940
H         -3.78100        1.23300        1.08340
H         -2.20670        1.99910        0.75550
H         -1.50120       -1.58180       -0.53480
