22
gdb 10300	2.40266	1.58732	1.02234	0.5918	84.23	-0.2582	0.0556	0.3138	1227.0783	0.197438	-313.050924	-313.04067	-313.039725	-313.0857	37.81
C          0.01490        1.60740        0.06780
C         -0.03090        0.07990       -0.01800
C          0.72210       -0.49980       -1.24160
C          2.12350       -0.07580       -1.21540
C          3.27590        0.26490       -1.15750
C          0.61930       -2.05180       -1.35800
C         -0.83700       -2.53840       -1.37510
C          1.35590       -2.56180       -2.60450
H          1.04320        1.97020        0.14720
H         -0.43330        2.06580       -0.82110
H         -0.54090        1.96320        0.94070
H          0.39350       -0.35820        0.89380
H         -1.07500       -0.24240       -0.06810
H          0.25880       -0.07610       -2.14690
H          4.29220        0.57050       -1.12290
H          1.11440       -2.47220       -0.47220
H         -0.87000       -3.61900       -1.54660
H         -1.36010       -2.34130       -0.43640
H         -1.40220       -2.06040       -2.18470
H          2.40120       -2.24470       -2.61140
H          1.32880       -3.65530       -2.64780
H          0.88220       -2.18290       -3.51860
