17
gdb 19074	3.67249	2.52839	2.12531	0.2638	66.5	-0.2082	0.0875	0.2956	713.7488	0.145201	-363.793512	-363.787781	-363.786836	-363.822872	24.569
C          0.02330        1.53730       -0.08200
C          1.30700        0.73750        0.01590
O          2.03780        0.69610        1.22150
C          1.48950       -0.17580        2.20750
C          0.00880        0.16770        2.47430
N         -0.35590       -0.67130        1.27130
C          0.90850       -1.46240        1.57910
C         -0.02980        0.03450        0.02910
H         -0.26690        2.16690        0.74940
H         -0.21790        1.95420       -1.05440
H          1.96580        0.70030       -0.84580
H          2.22280       -0.21870        3.01550
H         -0.38850       -0.31730        3.37050
H         -0.30010        1.21260        2.46590
H          1.40980       -1.89200        0.70910
H          0.69790       -2.23850        2.31950
H         -0.34320       -0.52430       -0.84830
