14
gdb 2233	4.98884	2.92558	2.31191	1.4069	56.62	-0.2433	0.0173	0.2607	608.8823	0.114403	-324.57608	-324.570177	-324.569233	-324.605432	22.709
C         -0.02870        1.52730       -0.01530
C          0.05990        0.02600        0.02260
C         -0.81980       -0.81970        0.92620
C          0.66980       -0.83400        1.12160
O          1.38160       -1.86560        0.45010
C          1.14350       -1.64490       -0.86990
N          0.45140       -0.63530       -1.21210
H          0.91460        1.96610       -0.35490
H         -0.81670        1.84470       -0.70570
H         -0.26080        1.93010        0.97490
H         -1.38740       -0.29120        1.68500
H         -1.30530       -1.69600        0.50970
H          1.15690       -0.50730        2.03120
H          1.58450       -2.37430       -1.53820
