13
gdb 1393	5.94279	1.31105	1.15698	2.7775	59.52	-0.255	-0.0418	0.2133	1001.7488	0.098575	-344.431605	-344.423381	-344.422437	-344.466028	26.937
C          0.05190        1.48440       -0.01650
C          0.03190        0.02970       -0.00060
C          0.00200       -1.17370        0.02930
C         -0.02050       -2.64050        0.02770
O         -1.29530       -3.18870        0.22810
C          0.55420       -3.11060       -1.31330
O         -0.08630       -3.80990       -2.05530
H          0.84990        1.87780        0.62230
H          0.21110        1.87030       -1.02910
H         -0.89760        1.89000        0.34880
H          0.66620       -3.00630        0.81140
H         -1.51630       -3.63290       -0.60660
H          1.57290       -2.75390       -1.55700
