13
gdb 3741	7.91751	2.07805	1.66727	4.0477	57.06	-0.2081	0.0075	0.2155	719.7891	0.103619	-336.813559	-336.806946	-336.806002	-336.843992	23.605
C          0.00540        1.44400        0.04290
N         -0.01100        0.00170       -0.07390
C          0.01450       -0.76440       -1.19960
C         -0.01360       -2.05760       -0.71940
N         -0.06970       -3.27180       -1.40010
N         -0.05570       -2.01120        0.63950
N         -0.05920       -0.75970        1.02410
H          0.91930        1.85770       -0.39350
H         -0.86230        1.88290       -0.45800
H         -0.02990        1.68020        1.10630
H          0.04210       -0.34420       -2.19010
H          0.54100       -3.31880       -2.20430
H          0.11840       -4.04120       -0.76960
