13
gdb 20589	3.42772	1.9096	1.23584	7.2348	63.16	-0.2533	-0.0493	0.204	905.7567	0.095772	-394.79426	-394.786964	-394.78602	-394.826645	25.114
C         -0.00230        1.53220        0.09670
C          0.02580        0.04710       -0.04070
C         -0.01810       -0.81310       -1.12990
C         -0.11130       -0.46320       -2.54930
O         -0.14650       -1.25000       -3.46380
N          0.04090       -2.10730       -0.66950
N          0.11730       -2.09960        0.61580
N          0.10890       -0.79620        1.00930
H          0.90440        1.90290        0.58690
H         -0.07190        2.00830       -0.88210
H         -0.86150        1.86000        0.69170
H         -0.14930        0.63440       -2.73710
H          0.16220       -0.57990        1.99300
