15
gdb 1602	4.25383	1.97631	1.5017	2.7723	63.92	-0.2606	-0.056	0.2046	831.5516	0.121904	-308.505543	-308.497255	-308.496311	-308.538162	29.051
C         -0.15860        1.42160        0.16550
C          0.05680       -0.09100       -0.04790
C          0.81350       -0.39130       -1.34250
C          0.77390       -0.68810        1.15970
O          1.88860       -1.16090        1.11040
C          0.02860       -0.65920        2.41240
C         -0.59710       -0.64870        3.44110
H          0.80160        1.94640        0.20870
H         -0.73400        1.83790       -0.66630
H         -0.70210        1.62400        1.09210
H         -0.93530       -0.56360       -0.07830
H          1.80930        0.05980       -1.32330
H          0.94440       -1.46670       -1.48720
H          0.26740        0.01130       -2.20070
H         -1.13510       -0.64640        4.35800
