18
gdb 17786	6.07138	1.12793	1.09866	1.9455	68.97	-0.2366	0.0772	0.3138	1141.2566	0.152806	-384.859738	-384.851973	-384.851029	-384.89254	28.633
C          0.02390        1.51840        0.03320
C         -0.14620        0.02680       -0.19480
O          0.94640       -0.43620       -0.97640
C          0.94640       -1.81120       -1.17940
C          0.16840       -2.46870       -2.37100
C          1.13520       -1.78260       -3.36390
C          1.95820       -2.38130       -2.19780
O          1.11600       -3.59820       -2.25540
H          0.96210        1.72120        0.55710
H          0.04140        2.05350       -0.92050
H         -0.80270        1.90800        0.63470
H         -0.17250       -0.51360        0.76510
H         -1.09640       -0.18180       -0.71100
H          0.87510       -2.38530       -0.24700
H         -0.88850       -2.71350       -2.47960
H          1.25210       -2.29420       -4.31990
H          1.09440       -0.69600       -3.44680
H          3.03520       -2.51640       -2.09840
