19
gdb 20098	4.20143	1.7083	1.50893	1.1991	75.52	-0.2107	0.09	0.3006	913.9779	0.166379	-327.861878	-327.854665	-327.853721	-327.893208	28.524
C         -0.86380       -0.43240       -1.12160
C         -1.05290        0.94490       -0.58760
N         -0.09060        0.02880        0.02440
C         -0.41080       -0.49870        1.30850
C         -0.35300       -1.95610        1.62790
C         -1.64330       -1.21680        1.91630
C         -1.48210       -0.40420        3.20360
C         -0.24660        0.33050        2.58380
H         -1.67170       -1.14020       -0.94460
H         -0.29940       -0.60280       -2.03370
H         -0.62650        1.80070       -1.10220
H         -1.97930        1.13900       -0.05080
H         -0.38930       -2.61070        0.76220
H          0.26600       -2.33120        2.44230
H         -2.58290       -1.52820        1.47480
H         -2.31510        0.27540        3.39690
H         -1.29220       -0.98830        4.11090
H          0.71300        0.22940        3.10100
H         -0.44340        1.39220        2.41550
