17
gdb 19111	4.55694	2.25049	2.18126	0.8558	70.13	-0.2171	0.0886	0.3057	715.5297	0.14391	-326.634472	-326.62857	-326.627626	-326.664052	24.685
C         -0.10610        1.54300        0.00090
N          0.03330        0.09770        0.01890
C          1.06100       -0.53400       -0.83050
C          2.48710       -0.10040       -0.34190
C          2.69570       -1.36010        0.46400
C          2.23190       -0.10620        1.16590
C          0.72500       -0.54160        1.15450
C          1.19600       -1.69690        0.20890
H          0.84570        2.07610        0.16410
H         -0.51510        1.85870       -0.96480
H         -0.81060        1.85190        0.78060
H          0.86020       -0.63740       -1.89690
H          3.22270        0.53680       -0.81360
H          3.57410       -1.97180        0.61030
H          2.77050        0.52640        1.85820
H          0.18450       -0.65280        2.09460
H          0.71230       -2.66520        0.12320
