16
gdb 18850	3.62406	2.27777	1.90036	3.5129	67.48	-0.2318	0.0033	0.2351	752.3158	0.132976	-346.610191	-346.604165	-346.603221	-346.640225	24.306
O         -0.00150        0.04280       -0.16780
C         -0.03420        1.22860        0.01890
C         -1.13640        2.23340        0.05010
C         -0.77310        3.38940        0.99790
C          0.18170        3.11550        2.16100
C          1.49790        2.66430        1.47190
C          1.06470        2.32300        0.03530
C         -0.08140        3.31780       -0.31200
H         -2.15090        2.10200       -0.30690
H         -1.58360        4.09850        1.12940
H          0.32950        4.02020        2.75830
H         -0.21570        2.34670        2.83090
H          2.22840        3.48010        1.45630
H          1.96530        1.81050        1.97000
H          1.87230        2.16950       -0.68010
H         -0.12300        4.02060       -1.13120
