18
gdb 15944	3.53153	1.85985	1.49754	2.1326	67.33	-0.2398	0.061	0.3008	900.8343	0.153219	-384.891382	-384.883611	-384.882667	-384.923674	28.738
C         -0.12390        1.36820       -0.02040
O         -0.08380       -0.04600       -0.05600
C          0.67260       -0.55080       -1.10660
C          0.11060       -0.44730       -2.55680
C          0.32190       -1.98670       -2.73420
C          0.88630       -2.07410       -1.29700
O          2.31970       -1.91190       -1.25440
C          2.21450       -0.49110       -1.00110
H          0.87790        1.80190        0.11610
H         -0.56240        1.78810       -0.93710
H         -0.74730        1.65030        0.83060
H         -0.94410       -0.16230       -2.55850
H          0.65530        0.20510       -3.24390
H         -0.60980       -2.53900       -2.87910
H          1.04060       -2.29050       -3.49730
H          0.52550       -2.84930       -0.61740
H          2.75450        0.10660       -1.74580
H          2.56800       -0.23550        0.00620
