7
gdb 828	5.47818	2.98206	2.92952	1.5527	26.44	-0.2957	-0.0714	0.2243	454.0732	0.033264	-451.528971	-451.523486	-451.522541	-451.558621	17.598
F          0.03690        0.05480       -0.06120
C         -0.01730        1.37450        0.01080
F          1.22780        1.86800        0.00040
F         -0.65910        1.84860       -1.06510
C         -0.74150        1.85730        1.28450
O         -1.19240        1.10580        2.09690
H         -0.79430        2.96210        1.35810
