13
gdb 4442	3.57587	1.8841	1.24472	3.7963	56.86	-0.198	0.0458	0.2438	901.4069	0.094678	-435.795216	-435.787395	-435.786451	-435.827306	27.623
C          0.04120        1.54460        0.01770
C         -0.03460        0.06150        0.02720
C         -1.07190       -0.78120       -0.04480
O         -2.39250       -0.55070       -0.09240
O         -0.66020       -2.09240        0.00070
C          0.73460       -2.10330        0.10730
O          1.39470       -3.10420        0.15060
N          1.09500       -0.78580        0.14290
H          0.67480        1.91490       -0.79770
H         -0.95990        1.95910       -0.11820
H          0.44580        1.94230        0.95680
H         -2.81590       -1.28380       -0.55620
H          2.05530       -0.49740        0.20290
