10
gdb 2609	11.62655	1.02026	0.94337	4.7149	65.34	-0.2855	-0.0468	0.2386	1103.4835	0.065299	-284.987905	-284.980849	-284.979905	-285.019267	24.045
C         -0.07110       -1.22730       -0.00380
C         -0.02430       -0.02860        0.00220
C          0.02140        1.43340        0.00950
C          1.38150        1.96620       -0.00060
C          2.50200        2.41340       -0.00890
C          3.76990        2.92080       -0.01820
N          4.84740        3.35410       -0.02620
H         -0.10960       -2.28890       -0.00920
H         -0.52210        1.82920       -0.85970
H         -0.50540        1.81980        0.89320
