13
gdb 20704	3.3937	2.39892	1.41759	0.9658	63.21	-0.2477	-0.0756	0.172	811.9164	0.097287	-394.820159	-394.813471	-394.812527	-394.85112	24.454
C         -0.03200        1.49690       -0.00870
C         -0.00930        0.00450       -0.03630
N         -0.04260       -0.64720       -1.16000
C         -0.01880       -2.01760       -1.10830
N          0.03440       -2.75290       -0.03850
N          0.06830       -2.06620        1.11660
C          0.05250       -0.68890        1.27040
O          0.08620       -0.15070        2.36190
H          0.85750        1.87650        0.50620
H         -0.07890        1.89280       -1.02290
H         -0.88880        1.84880        0.57640
H         -0.04700       -2.54560       -2.05370
H          0.10980       -2.62790        1.95800
