15
gdb 17952	3.35934	2.31692	2.12742	1.6578	59.45	-0.2086	0.0665	0.2751	714.0016	0.120582	-399.735587	-399.729413	-399.728469	-399.76552	24.804
O         -0.07080        1.40780       -0.05800
C          0.03690        0.03860       -0.01640
C         -1.02330       -1.03140        0.03700
N         -0.45260       -1.74360       -1.10800
C          0.79090       -0.90860       -1.00030
C          1.81980       -1.57840       -0.09590
O          1.11390       -1.79780        1.13720
C          0.03300       -0.89010        1.15210
H          0.62270        1.78880        0.49210
H         -2.09180       -0.97080        0.21210
H         -0.27270       -2.72760       -0.90670
H          1.16270       -0.51380       -1.94710
H          2.16930       -2.54900       -0.46420
H          2.69570       -0.92710        0.06390
H         -0.27620       -0.56920        2.13990
