18
gdb 16842	3.51704	1.76911	1.39338	2.4922	66.87	-0.2475	0.0712	0.3187	916.9575	0.154867	-384.93017	-384.922601	-384.921657	-384.9617	29.672
O         -0.07530        1.44710        0.03600
C         -0.00250        0.02820        0.00830
C          0.69870       -0.59250        1.23890
C          0.03370       -1.97370        1.44260
O         -0.00560       -2.40500        2.79610
C         -1.37400       -1.80310        0.90120
C         -2.13160       -0.57530        1.33440
C         -1.39630       -0.57290        0.01970
H          0.81930        1.79250       -0.04550
H          0.50660       -0.30050       -0.91210
H          1.78480       -0.65860        1.11930
H          0.49840        0.03170        2.11510
H          0.55050       -2.72730        0.82670
H          0.89830       -2.57170        3.08160
H         -1.93120       -2.69610        0.64290
H         -3.21320       -0.62910        1.28660
H         -1.75610        0.02110        2.15730
H         -1.97010       -0.54390       -0.89920
