15
gdb 3094	3.85623	1.9952	1.67357	2.8114	58.86	-0.2413	-0.0186	0.2227	786.4513	0.123474	-345.645491	-345.637911	-345.636967	-345.677107	27.134
C         -0.04680        1.56890       -0.14070
C          0.04190        0.06180       -0.01900
C          1.32510       -0.66270       -0.19760
O          2.45190        0.11700       -0.45240
C          0.68000       -0.63960        1.19820
C          1.30260        0.13400        2.29190
O          1.25720       -0.19600        3.45510
H          0.90600        2.05340        0.07590
H         -0.32540        1.83990       -1.16420
H         -0.80780        1.97540        0.53250
H         -0.83540       -0.46400       -0.38510
H          1.30800       -1.62610       -0.70650
H          3.22400       -0.33950       -0.10180
H          0.20660       -1.55490        1.53760
H          1.84080        1.05370        1.98330
