14
gdb 10665	2.753	2.13741	1.34336	2.8215	63.32	-0.2826	-0.0499	0.2327	888.6375	0.106091	-378.727723	-378.719775	-378.718831	-378.760274	28.083
C          0.21420        1.13560       -0.79050
C         -0.08190        0.08930        0.25100
O          0.61610       -0.11030        1.21970
C         -1.32710       -0.76670        0.07010
C         -1.10350       -2.25140        0.25640
N         -1.79930       -1.48790        1.26900
C         -2.34050       -0.30880       -0.84860
N         -3.12030        0.07670       -1.61020
H          1.17020        1.61060       -0.57110
H          0.23070        0.68890       -1.79040
H         -0.58310        1.88690       -0.80070
H         -1.71700       -2.93400       -0.32310
H         -0.07530       -2.55380        0.43400
H         -1.13950       -1.24510        2.01120
