15
gdb 4705	6.43994	1.26394	1.06358	4.9284	75.65	-0.2193	-0.0394	0.1798	1065.2701	0.119477	-362.725511	-362.717959	-362.717015	-362.757611	27.211
C         -0.00420        1.49940        0.09610
C         -0.00270        0.01350       -0.05070
C         -0.05300       -0.78280       -1.18970
C         -0.02630       -2.12870       -0.78020
C          0.04000       -2.14430        0.60700
N          0.05280       -0.82350        1.02240
C          0.09090       -3.24160        1.54680
O          0.08320       -4.41950        1.25350
H          0.89920        1.86140        0.60140
H         -0.04650        1.97100       -0.88770
H         -0.86730        1.85260        0.67300
H         -0.10330       -0.41040       -2.20180
H         -0.05110       -3.01140       -1.39960
H          0.09710       -0.52870        1.98420
H          0.14040       -2.91880        2.61630
