22
gdb 8577	3.66185	1.77005	1.53871	0.1212	80.84	-0.2722	0.0797	0.3519	950.9723	0.20385	-313.078286	-313.071109	-313.070165	-313.109181	29.846
C          0.11720        1.58860        0.01090
C          0.03320        0.06090        0.00250
C          0.63750       -0.55430       -1.28550
C          1.04010       -2.02400       -1.07520
C          0.12550       -2.70620       -0.01320
C          1.04460       -2.03600        1.05240
C          2.17190       -2.09580       -0.01410
C          0.64300       -0.56870        1.28090
H          1.16150        1.92290        0.01060
H         -0.37010        2.02000       -0.87060
H         -0.36630        2.01000        0.89930
H         -1.03110       -0.20480        0.00330
H         -0.09180       -0.46370       -2.09980
H          1.52360        0.01340       -1.60160
H          1.19790       -2.53850       -2.02660
H         -0.94410       -2.47860       -0.00970
H          0.25590       -3.79180       -0.01960
H          1.20650       -2.56110        1.99730
H          2.67700       -3.06600       -0.02070
H          2.92230       -1.29780       -0.01130
H          1.53040       -0.00460        1.59960
H         -0.08290       -0.48730        2.09940
