20
gdb 14057	3.10069	1.62949	1.42619	1.6215	75.29	-0.2169	0.0743	0.2912	1005.2446	0.175865	-348.975868	-348.967078	-348.966134	-349.009139	32.139
C         -0.00080        0.81550       -2.18090
C          0.02360       -0.27970       -1.13640
C          1.27030       -0.62940       -0.31390
C          2.59440        0.08750       -0.46880
C          0.08570        0.02180        0.32810
C         -0.02480        1.35530        1.06270
C         -0.90060        0.55270        2.04880
O         -0.73530       -0.66120        1.28210
H          0.56700        1.69650       -1.86740
H          0.42520        0.47160       -3.13010
H         -1.02780        1.14250       -2.37840
H         -0.59370       -1.14240       -1.37670
H          1.35830       -1.69000       -0.08890
H          2.46540        1.16390       -0.61500
H          3.21740       -0.04850        0.42230
H          3.15740       -0.29490       -1.32750
H          0.90820        1.74520        1.47490
H         -0.53910        2.15120        0.52000
H         -0.50040        0.44960        3.06410
H         -1.95200        0.85690        2.10640
