18
gdb 18053	3.5696	2.17555	1.63192	1.8083	67.15	-0.2532	0.0839	0.3371	827.934	0.156651	-384.929338	-384.922825	-384.921881	-384.959836	25.984
C         -0.03730        1.57310       -0.06470
C          1.50830        1.52430        0.09410
C          1.36580        0.10360        0.67790
O          1.27420        0.20880        2.09620
C          0.34750       -0.68630        2.65190
O         -0.96320       -0.43700        2.22300
C         -1.09900       -0.71490        0.83370
C         -0.04550        0.01940        0.01930
H         -0.51860        2.01890        0.80820
H         -0.44290        2.02640       -0.97150
H          2.02070        1.50990       -0.87190
H          1.98540        2.25490        0.74940
H          2.10820       -0.65930        0.40760
H          0.62850       -1.73060        2.41290
H          0.36870       -0.52930        3.73210
H         -1.00940       -1.80250        0.66890
H         -2.11280       -0.41290        0.55250
H          0.03050       -0.42130       -0.97990
