18
gdb 8453	4.19498	1.7018	1.50424	1.5149	73.16	-0.217	0.0199	0.2369	906.4066	0.153829	-347.777803	-347.770426	-347.769482	-347.808836	29.531
C         -0.05620        1.46170        0.06020
C         -0.00080       -0.02460       -0.01040
C         -0.01830       -0.87420       -1.04180
C          0.06260       -2.25980       -0.36630
O         -0.00150       -3.41530       -1.13890
C         -0.95760       -2.07050        0.79320
C          0.08840       -0.97420        1.20220
C          1.17980       -1.98280        0.70610
H          0.82920        1.87230        0.56290
H         -0.11710        1.90780       -0.93670
H         -0.92510        1.80240        0.63820
H         -0.09010       -0.68810       -2.10540
H          0.67140       -3.35860       -1.82560
H         -1.96340       -1.73860        0.52720
H         -0.98730       -2.92110        1.48120
H          0.11220       -0.54300        2.20170
H          1.33700       -2.82570        1.38630
H          2.12920       -1.56730        0.35890
