16
gdb 8558	2.84354	2.78692	1.74437	0.8336	63.91	-0.215	0.067	0.282	777.2126	0.129496	-383.671457	-383.664404	-383.66346	-383.702143	27.87
C          0.02720        1.42390       -0.01400
C          0.00520       -0.06440        0.01610
O          0.89730       -0.81690       -0.81460
C          0.10220       -1.98680       -0.46130
C          0.45610       -2.24800        1.02640
C         -0.28840       -0.93210        1.26690
O         -0.75830       -0.40900        2.45230
C         -1.09900       -1.07970       -0.01240
H          1.02650        1.79930        0.23450
H         -0.24400        1.80910       -1.00160
H         -0.68120        1.81740        0.72090
H          0.10640       -2.76740       -1.21800
H         -0.10130       -3.09500        1.43490
H          1.52130       -2.32400        1.26860
H         -0.03770        0.06330        2.88510
H         -2.15710       -1.04620       -0.23230
