11
gdb 3772	4.12379	3.60526	1.94734	0.4801	48.26	-0.2507	-0.0251	0.2255	602.5709	0.079764	-372.755216	-372.749043	-372.748099	-372.785539	21.082
C          0.06130        1.43140       -0.05310
N          0.08390       -0.01230       -0.00510
N          0.20670       -0.77800       -1.12100
N          0.19640       -2.00150       -0.77590
N          0.06620       -2.04890        0.57550
C         -0.01270       -0.78850        1.14280
O         -0.13110       -0.44650        2.29830
H          0.99120        1.81700       -0.47820
H         -0.78450        1.78360       -0.64870
H         -0.04410        1.77560        0.97720
H          0.03660       -2.93300        1.05390
