12
gdb 21589	3.58517	2.35315	1.42101	3.0296	61.84	-0.2283	-0.0527	0.1756	784.6617	0.086015	-410.853965	-410.847396	-410.846451	-410.884528	24.603
N          0.01360        1.37380        0.08640
C         -0.04390        0.02530        0.02970
C         -1.16210       -0.77010        0.01290
N         -1.12290       -2.13700       -0.01250
N         -0.01630       -2.76450       -0.02740
N          1.12450       -2.01320       -0.02070
C          1.25810       -0.64320        0.00220
O          2.33480       -0.06400       -0.00600
H          0.92850        1.78290       -0.02940
H         -0.80160        1.94260       -0.05730
H         -2.16150       -0.34790        0.02260
H          1.97310       -2.56380       -0.04130
