19
gdb 6288	3.91841	1.05099	1.01728	4.798	73.23	-0.2355	0.0251	0.2606	1239.8067	0.16503	-361.231643	-361.222108	-361.221163	-361.265985	33.911
C         -0.04020        1.56260        0.21170
N         -0.03820        0.11640        0.02740
C          0.76020       -0.54380        1.05230
C         -1.38000       -0.44030       -0.08460
C         -1.92760       -0.25150       -1.52640
N         -1.07730       -0.82110       -2.57480
C         -3.28220       -0.81010       -1.61120
N         -4.34260       -1.26760       -1.63980
H          0.98750        1.93690        0.19120
H         -0.58710        2.05470       -0.59720
H         -0.49950        1.87020        1.16940
H          0.36220       -0.40030        2.07360
H          0.80900       -1.61820        0.85340
H          1.78020       -0.14780        1.03170
H         -1.33060       -1.51560        0.11450
H         -2.08560       -0.00550        0.64630
H         -2.01770        0.82450       -1.72550
H         -0.12180       -0.56440       -2.33180
H         -1.12050       -1.83630       -2.52880
