16
gdb 16557	3.16499	2.71112	2.26176	0.8092	63.7	-0.2302	0.008	0.2381	696.0533	0.133404	-383.731289	-383.725491	-383.724547	-383.760805	23.933
C         -0.01170        1.54070        0.01180
O          1.31120        2.06290       -0.04800
C          2.14200        1.44210       -1.02290
C          2.01540       -0.09160       -0.94990
O          0.63640       -0.38050       -1.21960
C          0.01010        0.00020        0.01350
C          0.98730       -0.52040        1.05960
C          2.18400       -0.57520        0.48460
H         -0.45790        1.95010        0.92390
H         -0.60380        1.87310       -0.85520
H          1.85940        1.76040       -2.03860
H          3.16090        1.78440       -0.81470
H          2.63850       -0.58640       -1.70020
H         -0.99900       -0.41990        0.04740
H          0.73340       -0.71190        2.09340
H          3.13350       -0.82180        0.94030
