14
gdb 7622	4.58477	1.39553	1.18242	2.2838	57.99	-0.2643	-0.0386	0.2257	979.9914	0.105009	-419.721007	-419.713162	-419.712218	-419.75505	27.069
C         -1.15880        0.55490        0.09360
C          0.34250        0.47350       -0.04200
O          1.11930        1.02870        0.69820
C          0.88710       -0.34030       -1.21450
C          2.05300       -1.29750       -0.92720
C          1.05140       -2.37550       -1.34290
O          1.01370       -3.55350       -1.47050
O          0.03220       -1.47360       -1.58660
H         -1.60600        0.91500       -0.83990
H         -1.57040       -0.44510        0.26390
H         -1.41950        1.21880        0.91800
H          1.02480        0.32170       -2.07650
H          2.92320       -1.21900       -1.57960
H          2.37530       -1.33880        0.11390
