17
gdb 7516	5.03442	1.18985	1.13178	3.2135	69.03	-0.2714	0.0254	0.2968	1089.7298	0.140545	-363.867718	-363.859029	-363.858085	-363.900884	31.69
C         -0.00190        1.47220       -0.15520
C          0.07210       -0.02700        0.02830
C          1.40750       -0.75220       -0.02190
C          0.65320       -0.62530        1.27860
O          1.11660        0.28100        2.23530
C         -0.01400       -1.85630        1.88840
C          0.93290       -2.61330        2.70970
N          1.71580       -3.16730        3.35470
H          0.82420        1.96800        0.35840
H          0.04070        1.73400       -1.21750
H         -0.93550        1.87360        0.25290
H         -0.76710       -0.57480       -0.39470
H          1.46920       -1.71950       -0.50940
H          2.29540       -0.13660       -0.12050
H          1.90240       -0.09520        2.65010
H         -0.85330       -1.54440        2.52030
H         -0.41190       -2.51000        1.10580
