21
gdb 2942	5.40797	1.63869	1.36054	0.0445	73.97	-0.3018	0.0824	0.3842	965.2228	0.196559	-275.011437	-275.003477	-275.002533	-275.044853	29.179
C         -0.02150        1.59790        0.09750
C          0.00070        0.06600        0.06740
C         -1.38040       -0.57940       -0.07230
C         -2.11360       -0.30680       -1.39890
C         -3.25010       -1.34810       -1.42390
C         -2.70950       -2.57470       -0.63050
C         -1.36010       -2.11990       -0.02010
H          0.98540        2.00620        0.23100
H         -0.42600        2.01320       -0.83110
H         -0.64120        1.96790        0.92230
H          0.63690       -0.27600       -0.76100
H          0.47550       -0.30450        0.98550
H         -2.01820       -0.21460        0.74800
H         -2.48120        0.71900       -1.49300
H         -1.41910       -0.47940       -2.23280
H         -4.13720       -0.94040       -0.92730
H         -3.55430       -1.60710       -2.44190
H         -3.41580       -2.86820        0.15190
H         -2.57930       -3.45000       -1.27320
H         -0.52560       -2.48360       -0.63350
H         -1.19910       -2.50520        0.99140
