12
gdb 21881	5.25277	1.5271	1.18314	3.2796	61.03	-0.2489	-0.044	0.2049	915.9019	0.085182	-414.696449	-414.690024	-414.68908	-414.727178	23.738
O          0.11060        1.30600        0.06730
C          0.07000       -0.03290        0.06400
N          0.08770       -0.73220       -1.05020
N          0.03320       -2.03180       -0.62240
C          0.03090       -3.11660       -1.50010
O          0.07530       -3.04160       -2.69440
C         -0.01750       -2.11660        0.75000
C          0.00420       -0.84400        1.23750
H          0.15170        1.59630       -0.85420
H         -0.01760       -4.06390       -0.93050
H         -0.06400       -3.07370        1.24560
H         -0.02190       -0.51840        2.26350
