16
gdb 21080	3.47102	1.81584	1.21029	3.6966	67.37	-0.2274	0.029	0.2564	961.4718	0.131189	-379.932574	-379.92437	-379.923426	-379.966307	28.314
C         -0.02250        1.39780        0.01910
N         -0.00770       -0.04760        0.04320
N         -0.02930       -0.73700       -1.12140
C         -0.00680       -2.01430       -0.75380
C          0.02950       -2.16060        0.64720
C          0.02790       -0.86730        1.12860
C          0.05730       -0.34780        2.53100
O          0.09000       -1.45870        3.40540
H          0.87780        1.81200        0.48640
H         -0.05550        1.70150       -1.02650
H         -0.90240        1.79440        0.53750
H         -0.01750       -2.78570       -1.51010
H          0.05340       -3.06110        1.23660
H          0.93880        0.30200        2.67350
H         -0.82900        0.28430        2.71710
H          0.10950       -1.12790        4.30780
