18
gdb 6590	5.99331	1.29239	1.29233	0.9144	80.59	-0.2546	0.0486	0.3032	1017.9936	0.153213	-310.597351	-310.589724	-310.588779	-310.6287	30.314
C         -0.02060        1.46850        0.01400
C          0.00230       -0.03520        0.00040
C          0.62880       -0.96280       -1.08710
C          0.03100       -1.93320       -0.01680
C          0.64490       -0.98200        1.06130
C         -1.22400       -1.00080        0.00100
C          0.05280       -3.36730       -0.02980
C          0.07100       -4.57050       -0.04080
H          0.99550        1.87830        0.00910
H         -0.54510        1.86270       -0.86330
H         -0.53010        1.84700        0.90700
H          0.14520       -0.97120       -2.06780
H          1.71890       -0.95560       -1.17500
H          1.73610       -0.97630        1.13300
H          0.17620       -1.00800        2.04910
H         -1.83120       -1.02830        0.91020
H         -1.84500       -1.01200       -0.89910
H          0.08720       -5.63190       -0.05040
