12
gdb 1461	8.30634	1.44292	1.23893	6.8724	49.53	-0.2525	-0.0299	0.2225	881.9452	0.088083	-397.680771	-397.673011	-397.672066	-397.713681	25.203
O          0.15050        1.40700        0.00930
C          0.00720        0.01610        0.00170
C         -1.48980       -0.31770        0.01430
O         -2.36310        0.50110        0.02680
N         -1.70400       -1.70890        0.00930
C         -2.92020       -2.38820        0.01710
O         -4.01380       -1.89840        0.02990
H          1.08980        1.61270       -0.00260
H          0.45220       -0.45420       -0.89300
H          0.46990       -0.46580        0.88110
H         -0.88310       -2.29810       -0.00110
H         -2.74080       -3.48360        0.01050
