11
gdb 2824	4.86435	2.09042	1.6659	3.6354	53.08	-0.2798	-0.0285	0.2512	707.8148	0.078152	-339.431092	-339.424612	-339.423668	-339.46188	21.987
O          0.11010        0.24860       -0.46550
C          0.12980        1.39220       -0.09750
N          1.22090        1.98080        0.54970
C          2.58400        1.80120        0.13380
C          1.92890        3.16590        0.08700
C          1.60400        3.74560       -1.19560
N          1.33330        4.22850       -2.21050
H         -0.73010        2.08200       -0.16130
H          3.30890        1.60700        0.91840
H          2.75390        1.29190       -0.81060
H          2.17010        3.89420        0.85640
