16
gdb 19603	3.19552	2.38337	1.77946	3.4681	67.65	-0.2341	0.0092	0.2433	782.7394	0.130959	-346.577028	-346.57043	-346.569485	-346.607555	26.064
C          0.07950        1.59150        0.05700
C          0.09390        0.07080        0.00320
C          0.80050       -0.67510       -1.14210
C          1.27540       -1.75580       -0.23290
C          2.30040       -0.75100       -0.80930
C          2.45490       -0.21110        0.57720
O          3.37650        0.21970        1.21230
C          1.04790       -0.72650        0.94880
H          1.08610        2.00860       -0.04690
H         -0.54090        2.00340       -0.74610
H         -0.33130        1.94430        1.00910
H         -0.92110       -0.32970        0.10030
H          0.48950       -0.76220       -2.17630
H          1.30460       -2.83290       -0.27740
H          3.05100       -0.92520       -1.56780
H          0.79160       -0.94830        1.98120
