14
gdb 1433	7.91069	1.19122	1.04896	3.9779	65.82	-0.2485	-0.0131	0.2354	1103.556	0.111591	-324.584824	-324.576046	-324.575102	-324.620157	28.038
C          0.03110        1.44300       -0.06060
N         -0.08320       -0.00050       -0.09460
C         -1.24670       -0.65320        0.20290
O         -2.28050       -0.09030        0.51980
C         -1.13590       -2.10090        0.10520
C         -1.09640       -3.30380        0.03880
C         -1.06110       -4.75490       -0.03780
H          0.78230        1.76680        0.66870
H          0.30090        1.84540       -1.04360
H         -0.94210        1.83880        0.23120
H          0.71610       -0.55850       -0.34520
H         -2.03620       -5.18680        0.21040
H         -0.79110       -5.08920       -1.04540
H         -0.32280       -5.16760        0.65840
