19
gdb 16071	3.12618	1.80436	1.46961	2.6958	71.8	-0.2443	0.0845	0.3289	941.5058	0.165621	-365.012696	-365.00468	-365.003736	-365.044774	30.586
C         -0.02630        1.68480        0.41660
N          0.01520        0.23670        0.55720
C          1.05060       -0.59880       -0.02690
C          2.44690        0.04730        0.04170
C          2.28220        0.18480        1.58920
C          0.89290       -0.47070        1.47180
C          0.23340       -1.39210        2.46620
O         -0.94510       -1.95500        1.93660
H          0.94960        2.18440        0.47200
H         -0.47990        1.93090       -0.54840
H         -0.66330        2.09760        1.20490
H          0.74570       -1.39760       -0.69450
H          3.23670       -0.65700       -0.22710
H          2.59240        0.96570       -0.53440
H          2.98910       -0.44280        2.13670
H          2.31250        1.19160        2.01630
H          0.91460       -2.21130        2.72890
H          0.03240       -0.83120        3.39770
H         -1.29570       -1.27380        1.34240
