16
gdb 2072	4.58293	2.48342	1.72112	3.8712	60.93	-0.2344	0.0337	0.2681	730.3506	0.140017	-325.831718	-325.825313	-325.824368	-325.86207	24.21
O          0.01080       -0.08530        0.08830
C         -0.01690        1.13080        0.03630
C         -1.32860        1.91170        0.04230
C         -1.19500        3.38390        0.44800
C         -0.03140        4.02830       -0.30910
C          1.27400        3.31320        0.03590
N          1.13070        1.86800       -0.09280
H         -1.73300        1.83950       -0.97600
H         -2.02060        1.36370        0.68630
H         -2.13140        3.91620        0.25200
H         -1.01190        3.45920        1.52790
H         -0.21250        3.96210       -1.38910
H          0.06730        5.08950       -0.06020
H          2.08000        3.64580       -0.62780
H          1.57450        3.58000        1.06150
H          1.96900        1.30500       -0.06070
