18
gdb 15876	2.23926	2.13356	1.24097	4.2173	68.34	-0.239	-0.0165	0.2224	998.9944	0.15195	-384.935387	-384.926672	-384.925727	-384.968933	31.479
C         -0.00620        1.57830       -0.00830
C          0.09590        0.06010        0.04150
C          1.05570       -0.67920       -0.92970
C          1.36800       -1.67430        0.21780
O          2.70040       -2.06540        0.45350
C          0.82550       -0.64720        1.24990
C          1.90630        0.19860        1.87680
O          1.91030        0.52360        3.03780
H          0.97770        2.05620        0.03160
H         -0.49140        1.89930       -0.93640
H         -0.59780        1.96360        0.82880
H         -0.90700       -0.37210       -0.03470
H          0.64460       -1.07420       -1.86220
H          1.93950       -0.07420       -1.15670
H          0.69860       -2.54460        0.17380
H          2.96210       -2.69350       -0.22710
H          0.18900       -1.02860        2.05020
H          2.71670        0.52960        1.19300
