13
gdb 21247	3.59072	1.93209	1.26766	4.0974	58.78	-0.2047	-0.0189	0.1859	894.6749	0.094639	-431.879635	-431.871933	-431.870989	-431.912364	27.065
C         -0.01040        1.40820       -0.02780
O          0.03570       -0.01570        0.01950
C          0.62660       -0.61000       -1.03840
C          0.76390       -1.96530       -1.23310
N          0.43450       -3.03590       -0.44560
O          1.39080       -2.15460       -2.38280
N          1.65630       -0.82470       -2.93400
N          1.18900        0.00760       -2.10230
H          0.99850        1.83320       -0.05990
H         -0.56580        1.75570       -0.90580
H         -0.51890        1.72160        0.88460
H         -0.27650       -2.83360        0.24260
H          0.27530       -3.89990       -0.94380
