19
gdb 17894	3.76752	1.94974	1.75605	1.7673	71.09	-0.2087	0.0841	0.2928	842.7129	0.167655	-365.027315	-365.020373	-365.019429	-365.057971	27.762
C         -0.17140        1.41390       -0.01990
N          0.05260       -0.02380        0.01890
C          1.24060       -0.49320       -0.78020
C          2.15730       -0.30730        0.45540
C          0.82410       -0.50420        1.22060
C          0.52160       -1.99900        1.33150
O          1.05350       -2.70280        0.21260
C          1.01070       -1.98610       -1.01820
H          0.72330        2.03370        0.16970
H         -0.56620        1.68910       -1.00370
H         -0.92660        1.67960        0.72740
H          1.43870        0.05330       -1.70650
H          2.96040       -1.02880        0.61870
H          2.54340        0.70890        0.54140
H          0.63490        0.03220        2.15470
H          0.99600       -2.44110        2.21490
H         -0.56750       -2.13520        1.40450
H          0.04150       -2.11920       -1.52120
H          1.79920       -2.42000       -1.64360
