20
gdb 14206	2.68969	2.35946	1.80632	0.4674	79.21	-0.2279	0.0937	0.3215	870.2627	0.177482	-311.833241	-311.825591	-311.824647	-311.864496	30.318
C         -0.12270        1.44380        0.00620
C          0.01720       -0.04930       -0.02320
C          0.95250       -0.87720       -0.90410
C          0.10970       -2.10760       -0.47600
C          0.41100       -2.25920        1.03930
C         -0.31340       -0.92680        1.20490
C         -1.06760       -1.10500       -0.09820
C         -2.51880       -1.05660       -0.44540
H          0.76710        1.92080        0.43470
H         -0.26420        1.85210       -1.00140
H         -0.98220        1.75260        0.61160
H          0.81210       -0.63290       -1.96220
H          2.02570       -0.89590       -0.67420
H          0.02780       -2.98070       -1.12120
H         -0.15660       -3.07970        1.48840
H          1.46370       -2.33700        1.33780
H         -0.67820       -0.47000        2.11780
H         -2.99730       -0.18060        0.00700
H         -2.67590       -0.99410       -1.52910
H         -3.05320       -1.94410       -0.08560
