18
gdb 8192	2.73761	2.2239	1.63593	2.2182	67.83	-0.2167	0.0631	0.2799	864.2109	0.152339	-384.906869	-384.898786	-384.897842	-384.938398	31.837
C         -0.04040        1.57040        0.00490
C          0.07980        0.06720        0.10360
O         -1.12050       -0.60230       -0.24840
C          1.31900       -0.74800       -0.23230
C          2.58390       -0.07030        0.30280
C          1.98580       -0.08440        1.75040
C          0.72220       -0.72690        1.20370
O          0.01890       -1.65170        1.93630
H          0.86070        2.07680        0.35870
H         -0.20700        1.87840       -1.03480
H         -0.88810        1.92230        0.60110
H         -1.17230       -0.66040       -1.20810
H          1.28270       -1.50330       -1.01070
H          3.46620       -0.70780        0.21830
H          2.82910        0.91200       -0.11410
H          2.52640       -0.77170        2.40450
H          1.86970        0.87340        2.26800
H         -0.81600       -1.78440        1.46510
