17
gdb 10687	2.82161	1.8889	1.34065	5.5392	68.65	-0.2641	0.0261	0.2902	946.9437	0.142793	-360.024718	-360.016241	-360.015296	-360.05738	31.284
C         -0.17060        1.60330        0.33790
C         -0.03060        0.11130        0.02080
N          0.75180       -0.54690        1.07070
C         -1.42170       -0.55190       -0.06180
C         -1.62260       -1.97770        0.33250
N         -2.12630       -0.89920        1.18730
C         -2.26060       -0.01570       -1.11430
N         -2.88530        0.41750       -1.98560
H          0.80830        2.09280        0.31420
H         -0.81550        2.09950       -0.39080
H         -0.60530        1.74550        1.33280
H          0.43330        0.01090       -0.97180
H          1.29070       -1.32120        0.70000
H          1.41220        0.10500        1.47740
H         -2.38420       -2.56340       -0.17210
H         -0.74720       -2.52750        0.66320
H         -1.44310       -0.75980        1.93450
