16
gdb 468	6.72379	3.02517	2.29024	1.7082	56.14	-0.2381	0.0839	0.322	594.9572	0.144241	-271.642927	-271.63658	-271.635636	-271.673114	22.656
C         -0.11370        1.53890        0.00190
C          0.08220        0.02560        0.00850
C          0.90200       -0.53940       -1.16420
C          1.35710       -1.89810       -0.61860
O          1.42100       -1.76750        0.80390
C          0.89250       -0.50650        1.19850
H          0.85130        2.05860       -0.01140
H         -0.67990        1.86260       -0.87730
H         -0.66140        1.87460        0.88900
H         -0.89940       -0.46670        0.01450
H          0.33150       -0.62490       -2.09280
H          1.76540        0.10840       -1.35880
H          0.63920       -2.69100       -0.87490
H          2.34020       -2.20280       -0.99640
H          1.71170        0.19010        1.44500
H          0.28930       -0.64730        2.10260
