16
gdb 11924	3.15197	1.87453	1.51354	4.0575	70.88	-0.2327	0.0054	0.238	885.0555	0.131108	-342.756493	-342.748945	-342.748	-342.788145	28.313
C         -0.05020        1.56270        0.03120
C          0.02490        0.06550        0.00740
C         -0.85830       -0.82540        0.84060
C          0.63660       -0.93880        1.00460
N          1.14270       -1.80450       -0.08930
C          0.69920       -0.77010       -1.08950
C          1.33930       -0.72790        2.22360
N          1.93240       -0.54850        3.20250
H          0.90740        2.01630       -0.24480
H         -0.80930        1.92490       -0.67250
H         -0.32150        1.92720        1.02660
H         -1.38160       -0.32050        1.64580
H         -1.37240       -1.67920        0.40810
H          2.15620       -1.85890       -0.06210
H          0.05500       -1.17140       -1.87880
H          1.53840       -0.23570       -1.54620
