15
gdb 4493	3.6924	1.73922	1.19724	0.3784	65.47	-0.1785	0.0344	0.2129	971.8001	0.118336	-399.825042	-399.816864	-399.81592	-399.857266	29.841
C          0.10660        1.47270        0.02570
C         -0.06330       -0.00330        0.01090
C         -1.14880       -0.81840        0.09320
C         -0.66730       -2.17240        0.01180
N         -1.44100       -3.34730       -0.02620
C          0.68210       -2.06610       -0.10840
O          1.64590       -3.01300       -0.14980
O          1.07270       -0.75320       -0.11320
H          0.73790        1.80030        0.86010
H          0.57340        1.83600       -0.89750
H         -0.86830        1.95530        0.12610
H         -2.17740       -0.50390        0.18580
H         -2.14670       -3.36070        0.70120
H         -0.85510       -4.16730        0.08190
H          2.06940       -3.01260       -1.01770
