14
gdb 4528	3.6238	1.81534	1.22009	1.9246	60.69	-0.1721	0.0546	0.2267	927.2951	0.10918	-412.071537	-412.06359	-412.062645	-412.103296	29.523
N         -0.01770        1.34590       -0.16910
C         -0.01420       -0.04490       -0.07090
N         -1.09060       -0.81010       -0.06950
C         -0.61000       -2.09480       -0.05980
O         -1.44970       -3.15920       -0.05320
C          0.75610       -2.13640       -0.03940
N          1.73730       -3.14360        0.00250
N          1.12300       -0.77500       -0.04600
H          0.55550        1.80190        0.53140
H         -0.96940        1.68530       -0.10320
H         -2.34170       -2.79300       -0.05820
H          1.72010       -3.73040       -0.82530
H          1.62540       -3.75280        0.80620
H          2.06900       -0.44270       -0.12510
