17
gdb 7512	4.81673	1.17872	1.10921	4.156	68.57	-0.2708	0.0326	0.3035	1085.5126	0.140674	-363.863447	-363.854763	-363.853819	-363.896567	31.679
C         -0.09770        1.66980        0.24810
C         -0.07340        0.16300        0.09550
C         -1.38580       -0.45490       -0.38310
C         -1.73750       -0.04690       -1.74560
N         -2.00100        0.28280       -2.82130
C          1.21250       -0.50560       -0.35570
C          0.73060       -0.65950        1.06810
O          1.37200        0.02440        2.10200
H          0.84320        2.03060        0.66530
H         -0.26560        2.15550       -0.71860
H         -0.90070        1.98000        0.92670
H         -1.32870       -1.54890       -0.36060
H         -2.20620       -0.16750        0.28630
H          1.15950       -1.36030       -1.02210
H          2.06690        0.14310       -0.51650
H          0.32010       -1.62900        1.35490
H          2.23980       -0.37250        2.22940
