16
gdb 17467	4.43836	1.98248	1.67918	3.3067	63.01	-0.2593	0.0595	0.3188	799.8612	0.130398	-383.709925	-383.703305	-383.702361	-383.74031	26.202
C         -0.00390        1.52800        0.00570
C         -0.04740        0.02830        0.12470
C         -1.32190       -0.73700       -0.26030
C         -1.29260       -2.02770        0.55320
O         -0.20570       -2.90820        0.26690
C         -0.08490       -2.04680        1.39900
C          0.69490       -0.77340        1.12150
O          1.15850       -0.66370       -0.22590
H          0.96050        1.90820        0.35160
H         -0.13520        1.83710       -1.03730
H         -0.80010        1.99320        0.59620
H         -2.20680       -0.15100        0.01370
H         -1.36690       -0.92930       -1.33690
H         -2.22410       -2.51780        0.82840
H         -0.02380       -2.53020        2.36980
H          1.33530       -0.34370        1.88750
