15
gdb 6298	4.39617	1.07175	1.00445	4.215	62.72	-0.2662	-0.0313	0.2349	1170.4176	0.115775	-399.826027	-399.816948	-399.816003	-399.860656	30.945
C          0.05870        1.44200        0.28860
C          0.09790       -0.01990       -0.09860
O          1.10370       -0.56930       -0.47870
C         -1.23200       -0.77850       -0.01770
C         -1.00210       -2.28120        0.20220
O         -0.54810       -2.56940        1.51130
C         -2.21550       -3.05360       -0.12580
N         -3.18390       -3.64320       -0.34990
H          1.00670        1.92110        0.04260
H         -0.76760        1.95650       -0.21410
H         -0.12360        1.52740        1.36670
H         -1.87710       -0.36860        0.76740
H         -1.75760       -0.61060       -0.96740
H         -0.19040       -2.59260       -0.46280
H         -1.27940       -2.43270        2.12460
