16
gdb 16190	3.19162	2.33949	1.52373	3.5198	71.42	-0.237	-0.0418	0.1952	833.841	0.13172	-346.633583	-346.626819	-346.625875	-346.664468	26.285
O          0.10510       -0.00100        0.00450
C          0.02700        1.20950        0.01070
C         -1.19980        2.04160        0.03100
C         -0.87470        3.34040        0.03240
C          0.61650        3.57830        0.01340
C          1.18920        2.16820       -0.00050
C          2.45160        1.75020        0.72810
C          2.43170        1.75690       -0.76620
H         -2.19450        1.61550        0.04250
H         -1.58190        4.16280        0.04550
H          0.90670        4.16730       -0.86650
H          0.93020        4.15950        0.89050
H          3.00640        2.52600        1.24490
H          2.41310        0.78780        1.22730
H          2.37970        0.79900       -1.27280
H          2.97250        2.53730       -1.29070
