15
gdb 2472	4.43141	2.67621	2.40783	2.7737	55.96	-0.2452	0.0777	0.3229	625.0765	0.125969	-345.642008	-345.635827	-345.634882	-345.671816	23.717
O         -0.54000        1.24800        0.72900
C         -0.02860        0.10400        0.06150
C          0.86030       -0.78750        0.97620
C         -0.06920       -1.85850        1.51020
O         -1.27980       -1.34070        2.07070
C         -1.31490       -1.84990        0.73260
C         -1.23850       -0.77610       -0.33360
H          0.20560        1.76100        1.05600
H          0.53390        0.41450       -0.83080
H          1.66520       -1.25960        0.39930
H          1.32730       -0.19720        1.77220
H          0.32660       -2.75090        1.99010
H         -1.92720       -2.73680        0.58570
H         -2.14130       -0.16260       -0.39150
H         -1.08160       -1.24550       -1.31160
