16
gdb 9808	3.36526	1.61084	1.35324	1.8476	61.13	-0.2597	-0.0416	0.2181	936.3545	0.127806	-420.861889	-420.853561	-420.852617	-420.89465	30.777
O         -0.37420        1.28470        0.11090
C         -0.01810       -0.06670        0.03790
C          0.88550       -0.29930       -1.15650
O          1.20150        0.60190       -1.89680
C          0.66850       -0.55210        1.32310
O          0.83100       -1.94770        1.33970
C          1.68160        0.32120        2.00900
C          0.31180        0.09940        2.62280
H          0.04970        1.70700       -0.65400
H         -0.90840       -0.70570       -0.10210
H          1.24430       -1.33540       -1.31130
H          1.72520       -2.15590        1.05140
H          2.53050       -0.16880        2.47430
H          1.88550        1.29350        1.57550
H         -0.38830        0.92490        2.60220
H          0.24810       -0.56170        3.47910
