20
gdb 16019	3.75499	1.7442	1.43389	1.1978	74.6	-0.2386	0.0869	0.3255	939.3126	0.17958	-349.003769	-348.996622	-348.995678	-349.034751	28.975
C          0.00590        1.53200        0.01020
C          1.31230        0.76960       -0.00640
C         -0.00590        0.02910        0.00230
C         -0.40620       -0.72800        1.25920
C          0.07020       -2.18210        1.16600
O         -0.40970       -2.81370       -0.00910
C          0.04770       -2.16950       -1.18640
C         -0.43020       -0.71460       -1.25490
H         -0.27500        2.04190        0.92640
H         -0.29240        2.05170       -0.89490
H          1.89530        0.77740       -0.92170
H          1.91260        0.76760        0.89780
H          0.01200       -0.25370        2.15480
H         -1.49910       -0.72170        1.36420
H          1.17340       -2.21380        1.18800
H         -0.30210       -2.77620        2.00590
H          1.15030       -2.20090       -1.22970
H         -0.34060       -2.75460       -2.02520
H         -1.52490       -0.70720       -1.33880
H         -0.02910       -0.23060       -2.15310
