20
gdb 12733	2.68665	2.02955	1.68773	1.2479	74.09	-0.2416	0.0767	0.3183	908.1758	0.17665	-348.982856	-348.974657	-348.973713	-349.015131	31.725
C          0.16830        1.61980       -0.08480
C          0.05910        0.10900        0.05620
C          0.87190       -0.82060       -0.89920
C          1.27400       -1.72680        0.30330
C          2.69170       -1.46030        0.85720
C          2.14070       -0.24880        1.67210
C          0.68400       -0.64260        1.26360
O         -0.16760       -1.02700        2.30950
H          1.21130        1.95470       -0.08000
H         -0.27790        1.95840       -1.02650
H         -0.35270        2.13870        0.72870
H         -0.99520       -0.18940        0.02850
H          0.28790       -1.30470       -1.68460
H          1.72920       -0.32660       -1.36850
H          0.90060       -2.75060        0.28610
H          3.05480       -2.26370        1.50300
H          3.46360       -1.23950        0.11440
H          2.30330       -0.32380        2.74990
H          2.47760        0.73580        1.33800
H         -0.32180       -0.25840        2.87050
