16
gdb 8306	6.05418	0.94795	0.88751	2.8556	61.37	-0.2745	0.0082	0.2827	1259.9685	0.129845	-420.900122	-420.892022	-420.891078	-420.933428	28.669
O          0.33230        1.35790        0.26170
C          0.12230       -0.01000       -0.04270
C         -1.30710       -0.46540        0.27310
C         -1.52930       -1.93900        0.00550
C         -2.97380       -2.47280       -0.01360
C         -2.68370       -2.74550       -1.49010
O         -3.24720       -3.19620       -2.43340
O         -1.40010       -2.26250       -1.43110
H         -0.15530        1.88330       -0.38050
H          0.35940       -0.23700       -1.09160
H          0.83380       -0.56610        0.57830
H         -1.52360       -0.25890        1.32830
H         -2.02110        0.11750       -0.32430
H         -0.82760       -2.56280        0.56750
H         -3.17400       -3.36790        0.57730
H         -3.75830       -1.73390        0.16080
