10
gdb 1030	8.58513	2.10593	1.6911	4.3222	52.75	-0.2688	-0.0791	0.1897	660.3451	0.067721	-359.345792	-359.340374	-359.339429	-359.375205	18.814
O         -0.13360        0.02370       -0.00100
C          0.02300        1.21810        0.00630
C          1.33790        1.88030       -0.00280
N          2.53670        1.37390       -0.02020
C          3.37490        2.46510       -0.02030
C          2.62590        3.60250       -0.00330
O          1.32110        3.24580        0.00770
H         -0.82230        1.93680        0.02170
H          4.44840        2.36260       -0.03260
H          2.84300        4.65720        0.00270
