18
gdb 14418	2.98961	2.23829	1.70729	1.9687	71.23	-0.2384	0.0755	0.314	840.8031	0.154337	-347.753533	-347.746324	-347.745379	-347.78445	28.696
C         -0.02230        1.57440       -0.04030
C          0.03270        0.08430        0.04490
C          0.00640       -0.99030       -1.01550
C          1.27810       -1.64850       -0.48050
C          0.94320       -0.94560        0.85920
C         -0.36630       -1.64060        1.33160
O         -0.86760       -1.19000        2.57220
C         -1.03220       -0.99890        0.11810
H          0.92840        1.99380       -0.39030
H         -0.80140        1.89100       -0.74270
H         -0.24630        2.03610        0.92920
H         -0.31150       -0.88440       -2.04620
H          1.34720       -2.74290       -0.46830
H          2.17190       -1.23370       -0.95540
H          1.71110       -0.69890        1.59070
H         -0.34210       -2.73340        1.40520
H         -1.02890       -0.24250        2.49340
H         -2.09270       -0.91430       -0.08940
