12
gdb 10448	2.93929	1.77329	1.28949	6.0991	59.01	-0.3214	-0.0204	0.301	909.1844	0.082794	-377.513529	-377.506013	-377.505069	-377.546006	25.966
N         -0.15960       -1.05630        0.50000
C         -0.07470        0.04320        0.15840
C          0.02390        1.43690       -0.27450
C          1.43250        2.00510       -0.12840
C          1.62600        3.41670        0.26200
O          1.82880        2.35590        1.19200
C          2.45470        1.36560       -0.94050
N          3.24750        0.86300       -1.61360
H         -0.29620        1.51010       -1.31980
H         -0.65770        2.04530        0.32740
H          2.52350        3.93820       -0.06130
H          0.74650        4.03480        0.43350
