18
gdb 12859	3.03471	2.28302	1.80806	2.2585	66.63	-0.2431	0.0823	0.3255	816.1369	0.154821	-384.932695	-384.925565	-384.924621	-384.963743	27.613
C         -0.17290        1.52900        0.15320
C          0.05400        0.03580        0.04810
C         -1.20560       -0.80970       -0.17680
O         -0.90360       -2.10670        0.32130
C         -0.11400       -1.91470        1.48960
C          0.81700       -0.74990        1.15960
C          1.85180       -1.01900        0.05140
O          1.08140       -0.28930       -0.92460
H          0.76990        2.04920        0.34200
H         -0.58930        1.91790       -0.78250
H         -0.87210        1.76460        0.96210
H         -2.05980       -0.37120        0.36630
H         -1.45940       -0.89900       -1.23590
H         -0.74880       -1.66420        2.35630
H          0.40360       -2.85510        1.70020
H          1.16640       -0.19510        2.03060
H          2.83980       -0.56880        0.20790
H          1.97500       -2.07270       -0.22740
