18
gdb 13994	3.84162	1.52094	1.28854	0.8935	79.13	-0.2374	0.0476	0.285	1001.2445	0.153075	-310.612474	-310.604588	-310.603644	-310.644684	30.345
C         -0.00840       -1.18420       -0.04100
C         -0.00720        0.01900        0.00290
C          0.01640        1.44990        0.03990
C          0.53210        2.18130        1.27720
C          1.34310        2.19690        0.02790
C          2.70460        1.55190       -0.25550
C          2.87860        2.55110       -1.43860
C          1.66320        3.36950       -0.90890
H         -0.02190       -2.24510       -0.07220
H         -0.79940        1.93660       -0.48900
H          0.00590        3.08520        1.56820
H          0.87380        1.56720        2.10370
H          3.42580        1.71780        0.55080
H          2.69070        0.48710       -0.50040
H          3.83250        3.07900       -1.49760
H          2.67790        2.08720       -2.40710
H          0.89490        3.64750       -1.63590
H          1.96550        4.26930       -0.36310
