14
gdb 866	6.63363	2.1472	1.65556	1.7659	60.38	-0.2243	0.0129	0.2372	750.3418	0.11372	-324.629068	-324.622246	-324.621302	-324.659799	24.109
C          0.10560        1.46220       -0.07600
C         -0.05750       -0.00850        0.03110
C         -1.09180       -0.84600        0.28040
N         -0.64610       -2.16400        0.25820
C          0.61940       -2.07310        0.00060
C          1.61780       -3.16380       -0.14400
O          1.05650       -0.79240       -0.15180
H          0.81760        1.84420        0.66440
H          0.47170        1.75660       -1.06610
H         -0.85640        1.95190        0.09160
H         -2.12370       -0.59860        0.47420
H          2.07410       -3.15350       -1.13950
H          2.42520       -3.06130        0.58870
H          1.11840       -4.12080        0.00830
