24
gdb 10519	2.56927	1.32949	1.02464	0.1475	85.29	-0.2609	0.0808	0.3417	1299.2601	0.222491	-314.272354	-314.26245	-314.261505	-314.307241	36.843
C         -2.05050        1.52840       -1.29410
C         -1.91240        0.00330       -1.30170
C         -1.67720       -0.57900        0.09940
C         -1.62850       -2.10100        0.15330
C         -0.51090       -2.78450       -0.62600
C          0.90150       -2.42740       -0.14610
C         -2.05730       -2.75920        1.44470
C         -2.95350       -2.82430        0.22950
H         -2.21030        1.92150       -2.30310
H         -2.89700        1.84650       -0.67500
H         -1.15070        2.00610       -0.88990
H         -2.81590       -0.44810       -1.73110
H         -1.08650       -0.28050       -1.96550
H         -0.74920       -0.16120        0.51300
H         -2.47980       -0.23270        0.76400
H         -0.64980       -3.86990       -0.54870
H         -0.60450       -2.54810       -1.69370
H          1.65670       -2.99410       -0.69980
H          1.12240       -1.36450       -0.28620
H          1.02470       -2.65370        0.91840
H         -1.54800       -3.66800        1.74960
H         -2.36260       -2.12590        2.27130
H         -3.86160       -2.22980        0.23590
H         -3.05290       -3.77610       -0.28220
