11
gdb 9161	8.10511	0.77585	0.71121	4.3077	67.85	-0.2916	-0.1057	0.1859	1424.5879	0.069765	-397.378532	-397.370235	-397.369291	-397.412228	27.207
O          0.04120        1.39520        0.00940
C         -0.01680       -0.00010        0.00220
C         -1.47100       -0.44050        0.01370
O         -2.41620        0.30650        0.02650
C         -1.65330       -1.89140        0.00780
C         -1.84090       -3.08650        0.00330
C         -2.04020       -4.43690       -0.00200
N         -2.20320       -5.58680       -0.00690
H          0.96570        1.66020        0.00010
H          0.45230       -0.45570       -0.88820
H          0.46910       -0.46540        0.87850
