15
gdb 84	8.11598	3.43678	2.66869	1.3894	49.45	-0.2617	0.0733	0.335	521.8605	0.136091	-233.555951	-233.549143	-233.548199	-233.585602	23.99
C         -0.03840        1.55620        0.00940
C          0.01910        0.02720       -0.02070
C          0.73140       -0.52710       -1.25450
C          0.83980       -2.05210       -1.22870
O         -0.01230       -0.08510       -2.38970
H          0.96850        1.98860        0.03530
H         -0.54380        1.93820       -0.88070
H         -0.57650        1.91380        0.89260
H          0.53170       -0.34990        0.87240
H         -0.99730       -0.38640       -0.00190
H          1.74910       -0.09940       -1.28830
H          1.34140       -2.42490       -2.12960
H          1.41820       -2.39230       -0.36340
H         -0.15620       -2.50440       -1.18310
H          0.43090       -0.40900       -3.17980
