19
gdb 1346	4.07202	2.23422	2.14319	0.1198	72.21	-0.2351	0.03	0.2651	756.1592	0.171962	-273.806375	-273.798985	-273.798041	-273.837238	28.681
C          0.21880        1.41500        0.00960
C         -0.11150       -0.09270        0.00400
C         -1.63680       -0.28300        0.00510
C          0.56790       -0.82130       -1.19840
C          1.86130       -1.47200       -0.64470
C          1.61130       -1.50350        0.84470
C          0.55420       -0.77250        1.18850
H          1.29910        1.58310       -0.04450
H         -0.24860        1.92000       -0.84380
H         -0.14750        1.89650        0.92320
H         -2.08570        0.14640       -0.89800
H         -1.90160       -1.34460        0.04260
H         -2.09780        0.20960        0.86890
H         -0.10140       -1.60550       -1.56710
H          0.75870       -0.14350       -2.03550
H          2.04140       -2.46670       -1.06850
H          2.75730       -0.87870       -0.87570
H          2.25480       -2.03840        1.53530
H          0.20080       -0.61700        2.20360
