10
gdb 199	9.43187	3.67479	2.64447	2.938	43.45	-0.2022	0.0448	0.247	453.0651	0.075256	-301.377995	-301.372972	-301.372028	-301.40609	18.316
O          0.11450        1.35010        0.21520
C          0.07330        0.01290        0.00330
C          0.07760       -0.80150       -1.09820
N          0.01840       -2.12380       -0.69700
C         -0.02050       -2.10110        0.60890
N          0.01090       -0.81500        1.09330
H          0.15750        1.79260       -0.63800
H          0.11920       -0.52140       -2.13950
H         -0.07100       -2.95690        1.26460
H         -0.00740       -0.51100        2.05250
