17
gdb 13123	4.52287	1.1195	0.94422	1.721	66.59	-0.2428	-0.0273	0.2155	1222.7492	0.140717	-400.973564	-400.965046	-400.964102	-401.007464	29.609
C         -0.21200        1.31610       -0.09310
O         -0.00150       -0.07490       -0.02950
C          0.62300       -0.47980        1.16890
C          0.85920       -1.97500        1.09940
N          2.04400       -2.42890        0.32160
C          2.50830       -3.33970        1.40050
C          1.47660       -2.67490        2.32530
O          1.26210       -2.66240        3.49930
H          0.73580        1.87490       -0.04660
H         -0.70130        1.52920       -1.04650
H         -0.85870        1.66940        0.72580
H          1.58480        0.03910        1.30560
H         -0.01340       -0.25510        2.04200
H         -0.08490       -2.46520        0.81450
H          1.81670       -2.89010       -0.55050
H          2.29620       -4.40900        1.25590
H          3.56140       -3.22620        1.67980
