15
gdb 20551	4.49047	1.55763	1.25927	2.9153	62.15	-0.314	-0.067	0.247	954.1034	0.117799	-395.938642	-395.93104	-395.930096	-395.971143	27.094
C          0.00870        1.47360       -0.15440
C         -0.00360       -0.04910        0.08510
C          0.75300       -0.43940        1.35990
C         -1.41220       -0.55570        0.09470
N         -2.02570       -1.11770        1.09650
O         -3.26980       -1.39280        0.63470
N         -3.36020       -0.96730       -0.68760
N         -2.25410       -0.46880       -1.00780
H          1.03930        1.82680       -0.25030
H         -0.53250        1.73580       -1.06690
H         -0.45580        2.00150        0.68490
H          0.48310       -0.52390       -0.77720
H          0.75920       -1.52240        1.50750
H          1.78810       -0.09280        1.29650
H          0.29380        0.01480        2.24280
