19
gdb 15250	2.76456	1.57368	1.21722	3.7416	73.51	-0.2442	0.0112	0.2555	1075.9429	0.163894	-365.066362	-365.05723	-365.056286	-365.100184	32.347
C         -0.33860        1.49860       -0.31450
C          0.00510        0.02680       -0.05010
C          0.92030       -0.56210       -1.10400
C          1.02790       -2.04700       -1.38800
C          0.22270       -3.10160       -0.66400
N          0.41050       -1.14390       -2.33340
C         -0.86210       -1.18180       -2.84700
O         -1.43410       -2.18250       -3.21580
H          0.56760        2.10970       -0.38340
H         -0.89120        1.61880       -1.25180
H         -0.95550        1.90540        0.49200
H          0.50980       -0.05820        0.92100
H         -0.91510       -0.56110        0.02340
H          1.83400        0.01640       -1.25130
H          2.01090       -2.39230       -1.70890
H         -0.73280       -2.72190       -0.29850
H          0.00540       -3.93450       -1.33760
H          0.79370       -3.48410        0.18830
H         -1.28840       -0.16620       -2.96700
