15
gdb 18186	4.15678	1.82607	1.48805	4.2036	69.37	-0.2525	-0.0049	0.2476	842.5021	0.120954	-325.535742	-325.529267	-325.528322	-325.566383	25.136
N         -0.07660       -1.19080       -0.18240
C         -0.04310       -0.03870       -0.09430
C         -0.00670        1.42300        0.02310
C         -0.61630        1.93020        1.32930
C          0.21060        2.76020        1.96510
C          1.52020        2.89760        1.26680
C          2.32920        1.61750        1.17730
C          1.41850        2.00180        0.04390
H         -0.56390        1.82500       -0.83480
H         -1.59410        1.60760        1.66320
H         -0.01180        3.26020        2.90070
H          2.03200        3.85270        1.24110
H          3.39380        1.70770        0.99050
H          2.04770        0.79280        1.82320
H          1.86040        2.28220       -0.90340
