16
gdb 10900	3.18593	2.02687	1.43379	2.0698	65.56	-0.2284	-0.0147	0.2136	883.3348	0.1292	-383.730281	-383.722327	-383.721382	-383.762424	29.257
C         -0.04160        1.55660        0.03920
C          0.06650        0.05990       -0.00780
C         -0.82620       -0.87380        0.80790
C          0.64350       -0.98520        1.00550
C          1.24150       -1.81250       -0.12780
O          0.79410       -3.14630       -0.19860
C          0.66210       -0.75080       -1.11520
O          0.81280       -0.57380       -2.29370
H          0.89830        2.03200       -0.25830
H         -0.82200        1.90910       -0.64350
H         -0.29770        1.90270        1.04540
H         -1.37790       -0.36190        1.59030
H         -1.36820       -1.68480        0.33380
H          1.13610       -0.76710        1.94380
H          2.34100       -1.74720       -0.14960
H          1.01580       -3.48050       -1.07480
