20
gdb 16223	2.74448	2.25157	1.41861	0.1584	81.59	-0.2119	0.0346	0.2465	948.2671	0.177857	-311.879772	-311.871912	-311.870968	-311.911706	30.702
C         -0.36800        1.45970        0.03520
C         -0.11630       -0.01570        0.00250
C          0.09350       -0.76400       -1.08510
C          0.35360       -2.21490       -0.75940
C         -0.03220       -2.31090        0.73990
C         -0.04370       -0.85920        1.23870
C          0.78990       -0.42890        2.43290
C         -0.71200       -0.48390        2.53900
H          0.37440        1.98490        0.64950
H         -0.33230        1.88820       -0.96970
H         -1.35060        1.69050        0.46520
H          0.11970       -0.37770       -2.09880
H         -0.22850       -2.90440       -1.38150
H          1.40970       -2.47010       -0.92770
H         -1.03770       -2.73690        0.83330
H          0.64420       -2.95000        1.31440
H          1.37050       -1.19430        2.93780
H          1.26560        0.54610        2.41110
H         -1.25350        0.45480        2.59480
H         -1.15650       -1.28520        3.12120
