22
gdb 10207	3.09892	1.05472	0.83937	2.631	79.47	-0.2449	-0.0184	0.2265	1447.8613	0.197424	-350.229825	-350.219383	-350.218438	-350.266242	36.151
C         -0.04470        1.58940        0.01550
C         -0.02180        0.05880        0.01030
C          0.71610       -0.52090       -1.20290
C          0.74690       -2.06210       -1.24430
C          1.35430       -2.58110       -2.56610
C          1.23740       -4.09760       -2.74780
C          1.57180       -2.58270       -0.08420
O          1.19270       -3.33440        0.77620
H          0.97020        2.00160        0.04020
H         -0.53800        1.98170       -0.88100
H         -0.58180        1.97610        0.88690
H          0.44350       -0.30430        0.93550
H         -1.04960       -0.32600        0.02240
H          0.24350       -0.15920       -2.12500
H          1.74730       -0.13910       -1.22420
H         -0.26900       -2.45810       -1.12680
H          0.85350       -2.06920       -3.39640
H          2.40930       -2.27860       -2.61780
H          1.68380       -4.41290       -3.69570
H          1.74070       -4.64320       -1.94320
H          0.18880       -4.41330       -2.74940
H          2.62420       -2.20210       -0.08800
