17
gdb 11252	4.63019	1.34464	1.19921	4.1706	73.88	-0.2652	-0.0022	0.2629	1034.8645	0.143342	-326.759399	-326.751737	-326.750793	-326.791669	28.45
C          0.05220        1.65200        0.00120
C          0.01750        0.12040        0.05160
C          0.67550       -0.55500       -1.18000
C          1.39760       -1.82840       -0.63840
C          1.53160       -1.52620        0.84880
C          0.78570       -0.48520        1.20520
C          0.63460       -3.06240       -0.86600
N          0.03160       -4.03320       -1.04180
H          1.08320        2.01830       -0.05450
H         -0.48820        2.02760       -0.87380
H         -0.41260        2.08820        0.89130
H         -1.03450       -0.19160        0.13050
H         -0.03380       -0.78430       -1.97710
H          1.43640        0.11430       -1.59350
H          2.37250       -1.96630       -1.12030
H          2.13440       -2.14310        1.50360
H          0.69950       -0.10430        2.21750
