11
gdb 3859	3.91753	3.48356	1.8621	3.1231	48.08	-0.228	0.0107	0.2388	617.8178	0.080656	-372.741729	-372.735661	-372.734717	-372.771444	22.185
N         -0.16020        1.42760       -0.05020
C         -0.05470        0.01880       -0.00570
C         -1.13170       -0.83450       -0.09420
O         -2.44390       -0.60370       -0.23250
N         -0.60200       -2.06800       -0.01070
N          0.75720       -1.99870        0.12420
N          1.07180       -0.73860        0.12650
H          0.37210        1.81280       -0.82490
H          0.20760        1.85170        0.79630
H         -2.53830        0.36010       -0.26550
H         -1.06550       -2.96150       -0.03590
