15
gdb 5531	3.31831	1.81698	1.26003	0.505	63.85	-0.211	0.0054	0.2163	949.8829	0.119366	-399.839536	-399.831933	-399.830989	-399.871935	27.43
C         -0.29630        1.60230       -0.10920
C          0.04030        0.10650        0.02290
C          0.81990       -0.43710       -1.11790
C          2.06220       -0.96580       -1.27510
O          3.00220       -1.15700       -0.32610
N          2.28210       -1.31280       -2.59330
C          1.17650       -0.98440       -3.18520
O          0.24470       -0.45250       -2.37920
H          0.61540        2.20400       -0.16990
H         -0.88490        1.79010       -1.01190
H         -0.87740        1.94460        0.75240
H          0.63240       -0.06810        0.92710
H         -0.88960       -0.46500        0.14450
H          3.76240       -1.55560       -0.76600
H          0.92520       -1.08850       -4.22890
