16
gdb 14360	4.31364	2.24308	1.9532	2.0412	69.2	-0.2315	0.0041	0.2356	729.6934	0.131966	-346.507534	-346.501817	-346.500873	-346.536887	24.281
C         -0.04730        1.58270        0.05550
C          1.43890        1.23480        0.08000
O          1.11150        0.05040        0.95690
C          0.12750        0.04970       -0.15720
C         -0.89590       -0.86020       -0.79580
C         -0.67670       -0.37860       -2.24540
C          0.45930        0.31750       -2.43610
C          1.25930        0.28340       -1.15720
H         -0.46960        1.86180        1.02120
H         -0.42980        2.17710       -0.77550
H          2.30160        1.82280        0.39510
H         -0.65250       -1.92560       -0.69150
H         -1.92240       -0.71070       -0.44680
H         -1.39590       -0.60820       -3.02490
H          0.78510        0.70820       -3.39350
H          2.02560       -0.49880       -1.15690
