18
gdb 19406	2.99072	2.17687	1.62265	1.5903	71.49	-0.2485	0.0733	0.3217	857.596	0.15416	-347.755743	-347.748434	-347.74749	-347.786889	29.072
O          0.18700        1.35760       -0.21420
C          0.03130       -0.02560       -0.00760
C          0.31360       -0.63440        1.37150
C         -0.74260       -0.25410        2.37910
C         -1.06540       -1.31240        1.36510
C         -1.39000       -0.64150        0.04510
C         -2.66490        0.03400       -0.37090
C         -2.16020       -1.18370       -1.11560
H         -0.25730        1.81430        0.50820
H          0.63680       -0.50570       -0.78210
H          1.26660       -1.04060        1.68760
H         -0.54680       -0.59960        3.38920
H         -1.25280        0.70660        2.33760
H         -1.31020       -2.33230        1.63430
H         -3.54110       -0.07640        0.26000
H         -2.57500        0.99810       -0.86170
H         -1.75090       -1.04420       -2.11180
H         -2.69690       -2.11780       -0.98180
