15
gdb 55	4.69474	4.66938	4.47909	1.384	49.04	-0.2601	0.0664	0.3265	449.0573	0.134977	-233.560626	-233.553779	-233.552834	-233.589759	25.128
C         -0.00860        1.54270        0.00150
C          0.00510        0.00700        0.01860
C          0.76140       -0.51840        1.24770
C         -1.42010       -0.54930       -0.02120
O          0.62590       -0.48360       -1.17660
H          1.01360        1.94020        0.00280
H         -0.51460        1.90700       -0.89710
H         -0.52210        1.94880        0.87920
H          0.28130       -0.20170        2.17940
H          0.79970       -1.61130        1.23020
H          1.79100       -0.14070        1.26080
H         -1.93850       -0.19910       -0.91830
H         -1.39940       -1.64260       -0.04560
H         -1.98850       -0.23060        0.85730
H          1.53110       -0.15490       -1.19210
