17
gdb 12805	3.67355	2.08618	1.63857	1.9754	68.75	-0.2305	0.0208	0.2513	830.485	0.143563	-363.866211	-363.859141	-363.858196	-363.89718	27.376
C         -0.03220        1.55980        0.10700
C          0.10630        0.05910        0.00450
C         -0.82480       -0.83700        0.80430
C          0.63610       -0.74810        1.16610
C          1.59150       -1.86700        0.82720
O          1.42650       -2.37460       -0.50810
C          1.02080       -1.49930       -1.46100
N          0.43640       -0.38620       -1.32440
H          0.91440        2.05480       -0.13410
H         -0.78650        1.91980       -0.59960
H         -0.32840        1.86060        1.11660
H         -1.54200       -0.36400        1.46700
H         -1.18330       -1.73850        0.31830
H          0.89500       -0.21600        2.07770
H          2.62500       -1.50880        0.92590
H          1.46930       -2.73460        1.48330
H          1.24190       -1.89550       -2.45010
