17
gdb 10121	2.45023	1.61913	1.03095	4.2403	68.21	-0.2545	-0.0396	0.2149	1136.644	0.139306	-401.004769	-400.995615	-400.99467	-401.039231	31.305
C         -0.17210        1.57620       -0.00010
C          0.07210        0.06720        0.06540
C          0.81020       -0.46930       -1.16650
O          2.08750        0.13540       -1.20770
C          2.81530       -0.01350       -2.33920
N          3.96840        0.48970       -2.40390
C          0.89430       -1.99190       -1.13500
O          1.90610       -2.62290       -1.27810
H          0.77320        2.11520       -0.09500
H         -0.80080        1.83770       -0.85850
H         -0.67780        1.92470        0.90470
H          0.66630       -0.18260        0.95180
H         -0.87960       -0.46970        0.15520
H          0.22710       -0.20840       -2.06900
H          2.29430       -0.56660       -3.13010
H          4.37730        0.30480       -3.31730
H         -0.09110       -2.48840       -0.97900
