15
gdb 21279	6.98535	1.35918	1.15435	2.6809	64.36	-0.2246	0.0135	0.2381	1017.8932	0.120156	-395.999866	-395.992138	-395.991193	-396.032311	26.641
C         -0.03690        1.34450       -0.05450
O         -0.08910       -0.06460       -0.26660
C         -1.28130       -0.63530       -0.08290
N         -1.42440       -1.94220       -0.25940
N         -2.74780       -2.10990        0.01940
C         -3.34810       -3.42200       -0.05090
C         -3.30240       -0.93040        0.33680
N         -2.40240        0.04010        0.28440
H          0.99660        1.63300       -0.25000
H         -0.71120        1.87160       -0.73650
H         -0.31140        1.59930        0.97370
H         -4.40580       -3.33810        0.20580
H         -3.24980       -3.82770       -1.06120
H         -2.85590       -4.09980        0.65140
H         -4.34530       -0.82080        0.59520
