24
gdb 7490	3.84578	1.10216	1.04497	0.0599	85.24	-0.2771	0.0801	0.3572	1302.6103	0.222949	-314.27407	-314.264552	-314.263608	-314.308139	35.958
C          0.13690        1.62580       -0.11700
C          0.07890        0.10100        0.01710
C         -1.33790       -0.45760       -0.17230
C         -1.48860       -1.96400        0.06400
C         -0.66730       -2.79360       -0.92780
C         -1.29270       -2.45520        1.53820
C         -2.59530       -3.28950        1.41720
C         -2.96430       -2.47820        0.14700
H          1.15590        2.00170        0.01940
H         -0.20750        1.94930       -1.10580
H         -0.50100        2.11380        0.62840
H          0.76010       -0.35010       -0.71390
H          0.45510       -0.19280        1.00590
H         -2.01520        0.06930        0.51440
H         -1.69000       -0.21640       -1.18630
H          0.40680       -2.61220       -0.81760
H         -0.83340       -3.86600       -0.77960
H         -0.94520       -2.55570       -1.96150
H         -0.36860       -2.99560        1.76260
H         -1.39440       -1.63580        2.25680
H         -2.39850       -4.34240        1.19900
H         -3.29400       -3.24340        2.25570
H         -3.66570       -1.66680        0.36450
H         -3.34040       -3.03570       -0.71590
