17
gdb 15079	2.66412	1.69665	1.19182	3.9143	65.24	-0.2505	-0.0291	0.2214	1022.2807	0.140353	-400.963028	-400.954449	-400.953505	-400.996976	30.152
O          0.23820        1.09330       -0.14500
C         -0.11980       -0.23690        0.16270
C         -1.64510       -0.42780        0.09390
C         -2.31690        0.46320        1.13620
O         -2.36690        0.18250        2.30440
N         -2.09190       -0.03370       -1.24000
C         -2.16450       -1.08740       -2.25010
C         -3.40630       -0.50960       -1.66980
H         -0.25510        1.31910       -0.94460
H          0.35830       -0.95920       -0.51920
H          0.22660       -0.44710        1.17860
H         -1.88860       -1.47480        0.34400
H         -2.75150        1.40420        0.73530
H         -1.84370       -0.80730       -3.24880
H         -1.89340       -2.09770       -1.94980
H         -3.97000       -1.13320       -0.97840
H         -4.00210        0.19870       -2.23710
