12
gdb 2844	5.36722	1.73345	1.45968	2.729	51.24	-0.2867	-0.0108	0.2759	791.5162	0.089266	-360.488871	-360.481917	-360.480973	-360.520302	23.91
O          0.03860        1.38590       -0.30330
C          0.05510        0.09880        0.28300
C         -1.32420       -0.51380        0.26690
O         -1.76220       -1.03220       -0.99510
C         -1.56840       -1.95930        0.07290
C         -0.47770       -2.90180       -0.06860
N          0.37610       -3.67500       -0.16260
H         -0.18630        1.27630       -1.23400
H          0.76570       -0.57560       -0.21390
H          0.38370        0.23340        1.31890
H         -2.09190        0.04500        0.80270
H         -2.47950       -2.39580        0.47800
