15
gdb 7743	3.64608	1.82137	1.25623	6.8232	66.52	-0.225	-0.0155	0.2095	919.0063	0.120748	-399.853997	-399.846868	-399.845923	-399.885189	27.222
N          0.05370        1.39410       -0.08300
C         -0.01650        0.02720       -0.06790
C         -1.16880       -0.67950       -0.11850
C         -1.20140       -2.13620       -0.03140
O         -2.20090       -2.78630        0.14960
O          0.00280       -2.79790       -0.11720
C          1.11070       -2.08660       -0.66020
C          1.29150       -0.71770       -0.01320
H          0.90700        1.83030        0.22570
H         -0.78530        1.91590        0.11740
H         -2.13890       -0.19620       -0.12440
H          1.98420       -2.72190       -0.49610
H          0.97150       -1.96440       -1.74310
H          2.07500       -0.16230       -0.54160
H          1.61200       -0.82360        1.03170
