17
gdb 8768	2.49487	1.70428	1.07607	5.183	69.02	-0.2618	-0.0381	0.2237	1083.5461	0.139473	-363.891296	-363.881913	-363.880969	-363.926246	32.155
C         -0.13340        1.48700        0.07190
C          0.01350       -0.04560        0.01240
C         -1.38910       -0.64380        0.03790
O         -1.98020       -0.92420        1.04540
C          0.79630       -0.51590       -1.24240
C          2.24470        0.00830       -1.30190
C          0.79610       -1.98320       -1.31320
N          0.79960       -3.13820       -1.35920
H          0.83960        1.97940        0.13660
H         -0.65190        1.87200       -0.81370
H         -0.71350        1.76820        0.95430
H          0.52640       -0.39460        0.91470
H         -1.86630       -0.76280       -0.96370
H          0.25900       -0.15800       -2.13170
H          2.76230       -0.39800       -2.17390
H          2.25660        1.09740       -1.37630
H          2.80070       -0.28750       -0.40780
