17
gdb 8550	3.95217	2.26474	1.85577	2.3333	66.9	-0.2055	0.0691	0.2746	757.1218	0.143498	-363.794871	-363.788372	-363.787428	-363.825097	26.325
O         -0.05320        1.43140       -0.01510
C         -0.01200        0.03620        0.01600
C          0.38570       -0.72600       -1.27760
C         -0.72460       -1.77740       -1.00010
C         -0.35610       -2.72290        0.15810
N         -0.67810       -1.68510        1.19650
C          0.44420       -0.68820        1.30170
C         -1.30630       -0.82940        0.09830
H          0.83330        1.75880       -0.20490
H          0.12200       -0.11160       -2.14370
H          1.41730       -1.07990       -1.38090
H         -1.27670       -2.17200       -1.85350
H         -1.05450       -3.56020        0.25730
H          0.66710       -3.11500        0.19730
H          1.45000       -1.12320        1.33580
H          0.29200       -0.05770        2.18380
H         -2.32710       -0.46620        0.20390
