12
gdb 8623	2.35018	1.98225	1.51447	0.8666	58.08	-0.2636	-0.0713	0.1923	865.6789	0.078681	-418.442807	-418.434359	-418.433415	-418.476119	29.118
O         -0.01070        1.49390        0.13750
C          0.00340        0.09960        0.04500
C         -1.46040       -0.41390       -0.05410
O         -1.75350       -1.56640       -0.19490
C          0.72420       -0.33520       -1.25330
O          1.23220        0.48670       -1.96750
C          0.69330       -0.55760        1.15600
C          1.27070       -1.11330        2.05090
H          0.55410        1.81180       -0.58740
H         -2.19180        0.41930       -0.01270
H          0.73350       -1.41960       -1.45300
H          1.77390       -1.59510        2.85340
