19
gdb 18169	3.59413	1.62315	1.40742	1.5947	71.6	-0.2291	0.068	0.2971	973.7368	0.165229	-365.002756	-364.994585	-364.993641	-365.035242	30.351
C         -0.09990        1.38900        0.05260
O          0.32150        0.06430       -0.19250
C          0.80740       -0.57920        0.95970
C         -0.17270       -1.18290        2.00640
N          0.47880       -2.53680        1.89450
C          0.29450       -2.99810        0.50340
C         -0.96430       -2.82310       -0.31750
C          1.34400       -1.98370        0.75040
H          0.72150        2.00740        0.44700
H         -0.43150        1.80700       -0.90060
H         -0.93550        1.43080        0.76730
H          1.55380        0.05890        1.45480
H         -0.04200       -0.79340        3.01760
H         -1.23530       -1.16740        1.74880
H          0.71080       -4.00160        0.42180
H         -1.26190       -1.78080       -0.42280
H         -0.79120       -3.21550       -1.32490
H         -1.79030       -3.39370        0.12240
H          2.40060       -2.22050        0.67220
