20
gdb 14298	3.56347	1.62172	1.56722	0.2547	80.59	-0.2143	0.0281	0.2424	960.6781	0.177698	-311.879572	-311.871678	-311.870734	-311.911298	30.823
C         -0.09360        1.54810        0.09140
C          0.04190        0.04810       -0.03560
C          0.70100       -0.64950       -1.20270
C          1.66120        0.12950       -2.10230
C          2.80560        0.52820       -1.18370
C          3.93940        1.37680       -1.66620
C          2.62010        0.03710        0.04780
C          1.34350       -0.71840        0.17930
H          0.82840        2.06540       -0.18310
H         -0.89740        1.92380       -0.55230
H         -0.33630        1.83040        1.12190
H         -0.82740       -0.49150        0.33570
H          0.19500       -1.51140       -1.62260
H          2.02110       -0.49050       -2.93520
H          1.19070        1.00930       -2.56390
H          3.59020        2.35860       -2.01140
H          4.68190        1.54190       -0.88040
H          4.44650        0.91190       -2.52200
H          3.30220        0.18690        0.87850
H          1.31320       -1.61510        0.79000
