12
gdb 4236	4.44037	2.14101	2.01553	2.2018	43.02	-0.316	0.0837	0.3997	662.1518	0.08696	-454.878708	-454.872379	-454.871435	-454.909382	22.913
F          0.27760        0.09240        0.11270
C          0.00070        1.40820        0.06370
F          1.15230        2.04930       -0.19800
F         -0.80400        1.60810       -0.99380
C         -0.62550        1.89550        1.33310
C         -1.55990        0.99010        2.09220
C         -0.19550        1.29780        2.64720
H         -0.85030        2.95550        1.29780
H         -2.42750        1.44620        2.55390
H         -1.72640       -0.00270        1.69210
H          0.54750        0.51010        2.61710
H         -0.11450        1.96790        3.49480
