14
gdb 538	18.07094	1.30977	1.28212	2.8428	51.64	-0.2544	-0.0258	0.2285	896.28	0.117214	-307.563525	-307.556074	-307.55513	-307.595647	23.884
C          0.02940        1.39110        0.13290
O          0.00180       -0.01500        0.04910
C         -1.30150       -0.52880       -0.08990
C         -1.20220       -2.04990       -0.20550
C         -2.55460       -2.71780       -0.11340
O         -3.00690       -3.47750       -0.92970
H          1.07470        1.69010        0.23870
H         -0.38630        1.86240       -0.77140
H         -0.53660        1.75960        1.00310
H         -1.92210       -0.25050        0.78080
H         -1.79330       -0.10800       -0.98290
H         -0.71210       -2.34630       -1.13550
H         -0.59380       -2.40570        0.63790
H         -3.13350       -2.45570        0.80420
