18
gdb 20233	4.01041	2.57927	2.20695	0.0631	72.8	-0.2344	0.0938	0.3282	707.8651	0.157769	-310.631478	-310.625972	-310.625028	-310.660707	23.915
C         -0.04540        1.59090        0.00530
C          1.44300        2.06870       -0.00670
C          2.25400        0.76540        0.00230
C          2.12890       -0.07720        1.27990
C          0.66480       -0.54740        1.29160
C          1.71450       -1.32050        0.53040
C          1.39500       -0.35520       -0.66660
C          0.05400        0.05910        0.01990
H         -0.59820        1.96590        0.87270
H         -0.57710        1.94150       -0.88600
H          1.65810        2.65900       -0.90420
H          1.68680        2.69970        0.85410
H          3.27970        0.84550       -0.36380
H          2.70240       -0.00140        2.19540
H          0.16770       -0.81520        2.21570
H          2.04440       -2.34630        0.59870
H          1.45750       -0.57660       -1.73010
H         -0.83180       -0.47450       -0.33080
