15
gdb 12189	3.95157	1.48533	1.20951	3.6381	70.15	-0.2446	0.025	0.2696	1000.1138	0.117592	-362.648822	-362.640578	-362.639634	-362.68176	28.996
C         -0.03330        1.46170        0.00980
N         -0.01300        0.02340       -0.04510
C         -1.08320       -0.97100       -0.09720
C          0.02790       -2.07540       -0.10620
C          0.08670       -2.96100       -1.24540
C          0.13870       -3.68410       -2.20420
C          1.02870       -0.86330       -0.08600
O          2.22030       -0.72290       -0.08880
H          1.00320        1.80650        0.02840
H         -0.53310        1.88960       -0.86760
H         -0.54330        1.82220        0.91140
H         -1.73570       -0.97660        0.78290
H         -1.68740       -0.93290       -1.00880
H          0.07270       -2.63310        0.83410
H          0.19380       -4.32740       -3.04720
