17
gdb 18459	3.37703	1.71009	1.4141	2.3445	69.11	-0.229	-0.0209	0.2081	937.9391	0.141395	-363.831545	-363.823894	-363.822949	-363.863962	28.512
C         -0.01370        1.37840        0.40840
C          0.04880        0.01850       -0.28050
N         -1.23650       -0.67180       -0.13760
C         -1.41950       -2.08270       -0.30320
C         -0.21460       -2.90800        0.18550
C         -0.43780       -2.24440        1.57320
O          0.01930       -2.44840        2.66060
C         -1.60400       -1.41690        1.06440
H          0.91950        1.92790        0.25420
H         -0.84090        1.97340        0.01200
H         -0.16250        1.26260        1.48670
H          0.21300        0.14800       -1.35640
H          0.90270       -0.55310        0.10910
H         -2.20470       -2.43820       -0.96080
H         -0.41990       -3.98030        0.26070
H          0.74150       -2.76280       -0.32230
H         -2.49400       -1.12820        1.61280
