13
gdb 3115	5.98584	2.20583	1.89961	4.8783	59.33	-0.2496	0.0061	0.2557	673.0374	0.103516	-303.464433	-303.458533	-303.457589	-303.494022	22.216
N          0.04380       -1.14120       -0.03760
C          0.03670        0.01510        0.00590
C          0.02560        1.44560        0.04040
C          0.29320        2.29260       -1.18600
C          1.18500        2.45450        0.00950
C          0.44940        3.21240        1.11490
N         -0.63220        2.17800        1.12520
H          0.73370        1.76730       -2.02690
H         -0.42540        3.06490       -1.45070
H          2.24410        2.23970       -0.02190
H          0.97750        3.23140        2.07210
H          0.13280        4.22980        0.85880
H         -1.55560        2.52360        0.87570
