17
gdb 11003	4.06388	1.74521	1.48119	3.976	68.45	-0.2351	0.0316	0.2666	889.3561	0.143822	-363.903928	-363.896645	-363.895701	-363.935152	28.119
C         -0.04210        1.51780        0.00800
C          0.05060        0.01240        0.00750
C         -0.80890       -0.81260        0.92090
C          0.69680       -0.78860        1.12200
C          1.43530       -1.93140        0.47850
O          2.16850       -2.73730        1.00790
N          1.11130       -1.89500       -0.86020
C          0.45070       -0.67910       -1.30090
H          0.90050        1.97590       -0.31190
H         -0.83010        1.86600       -0.67040
H         -0.27730        1.89640        1.00710
H         -1.40080       -0.27720        1.65590
H         -1.26300       -1.72760        0.55320
H          1.11920       -0.35100        2.01690
H          1.53970       -2.54870       -1.49550
H         -0.41910       -0.89630       -1.93410
H          1.13080       -0.03530       -1.87780
