18
gdb 13662	3.96692	1.22628	1.12091	0.8988	73.48	-0.2465	0.0326	0.2791	1131.4956	0.151247	-347.74075	-347.731861	-347.730917	-347.774687	32.329
C         -0.50170        1.40930        0.11970
C          0.35140        0.16230        0.03980
C          1.78070        0.17650        0.54830
C          0.71360       -0.60210        1.27850
O          0.19970       -0.12260        2.48750
C          0.89860       -0.56870        3.63730
C          2.19770        0.07410        3.85470
C          3.25640        0.60270        4.06500
H         -0.31170        1.95320        1.04760
H         -0.29190        2.07840       -0.72150
H         -1.56820        1.16080        0.09410
H          0.16850       -0.45480       -0.83620
H          2.54840       -0.36680        0.00780
H          2.11940        1.08750        1.02780
H          0.74380       -1.69150        1.22380
H          0.23970       -0.35050        4.48470
H          1.03420       -1.66140        3.60310
H          4.19460        1.06690        4.24440
