14
gdb 3334	4.41232	3.45219	2.33774	2.1283	57.21	-0.2332	0.0193	0.2525	587.3824	0.116209	-324.571081	-324.565527	-324.564583	-324.600322	21.259
C         -0.07740        1.44520        0.21480
C          1.29340        0.86230        0.00420
C          2.22150        0.62060        1.17110
O          1.57480        0.00610        2.30050
C          0.56230       -0.86080        2.04570
N         -0.15350       -0.96340        1.00780
C          0.08520       -0.03900       -0.06020
H         -0.37260        1.72450        1.22080
H         -0.49380        2.06770       -0.56940
H          1.80690        1.10060       -0.92280
H          3.04260       -0.03630        0.85440
H          2.65790        1.54670        1.55790
H          0.39120       -1.50110        2.90850
H         -0.24890       -0.40520       -1.02450
