20
gdb 10396	2.37502	1.9608	1.36322	1.0989	70.71	-0.248	0.0725	0.3205	1010.2844	0.175405	-386.108473	-386.099383	-386.098439	-386.142474	32.609
C          0.09610        1.51510        0.06130
C         -0.01850       -0.00060       -0.11970
C          0.73300       -0.53120       -1.33940
C          2.27990       -0.55770       -1.16240
O          2.25990       -1.98560       -0.97010
C          0.87200       -2.07770       -1.34720
O          0.15790        0.10270       -2.45800
C          0.74460       -0.10200       -3.72560
H          1.13820        1.82490        0.19770
H         -0.29830        2.03850       -0.81250
H         -0.46260        1.84410        0.94240
H          0.36340       -0.52080        0.76620
H         -1.07250       -0.28470       -0.22720
H          2.86150       -0.27170       -2.04720
H          2.67950       -0.02740       -0.29040
H          0.27310       -2.62200       -0.60760
H          0.74030       -2.55160       -2.32850
H          0.07490        0.36430       -4.45240
H          1.73210        0.37090       -3.81150
H          0.84660       -1.16510       -3.98060
