18
gdb 19073	3.59231	2.41732	2.05934	1.3829	69.89	-0.2294	0.0838	0.3133	745.3018	0.157008	-347.770031	-347.764145	-347.7632	-347.799522	25.402
C         -0.00400        1.53390       -0.15700
C          1.28920        0.77540        0.04640
O          2.00130        0.84710        1.25800
C          1.47590        0.03810        2.30720
C         -0.01650        0.36270        2.57910
C         -0.32010       -0.60900        1.40220
C          0.99290       -1.35470        1.80780
C         -0.01820        0.03300        0.05190
H         -0.35210        2.18610        0.63420
H         -0.20640        1.90090       -1.15780
H          1.96610        0.69070       -0.79800
H          2.20270        0.10060        3.11820
H         -0.34590       -0.06590        3.52940
H         -0.33430        1.40500        2.52740
H         -1.27090       -1.14550        1.40830
H          1.57070       -1.84370        1.01990
H          0.84840       -2.03810        2.64830
H         -0.24970       -0.59110       -0.80690
