16
gdb 7904	3.47008	1.6807	1.20675	2.1256	68.15	-0.2409	-0.0491	0.1917	981.537	0.129802	-383.78111	-383.773082	-383.772138	-383.813938	29.135
C          0.00430        1.52300        0.02640
C         -0.04110        0.03060        0.01780
C         -1.08860       -0.79770        0.13100
C         -0.72130       -2.26490        0.08410
O         -1.48580       -2.99070       -0.87080
C          0.80330       -2.25310       -0.16510
C          1.20720       -0.77610       -0.11620
O          2.33110       -0.33270       -0.16600
H          0.67750        1.87700        0.81450
H          0.41440        1.90110       -0.91650
H         -0.98440        1.96120        0.18050
H         -2.12550       -0.49460        0.24040
H         -0.95910       -2.74880        1.03830
H         -1.38720       -2.54800       -1.72150
H          1.37910       -2.83090        0.56250
H          1.03170       -2.66810       -1.15230
