16
gdb 12990	2.78831	2.56027	1.56974	2.7698	64.23	-0.2389	-0.0262	0.2127	829.471	0.13014	-383.762077	-383.754751	-383.753807	-383.793542	27.516
C         -0.29750        1.49070        0.07190
C          0.12740        0.05690       -0.00980
O         -0.66750       -0.93490        0.68940
C          0.69870       -0.77600        1.06800
C          1.59300       -1.86770        0.50300
C          1.23920       -1.90810       -1.00130
C          0.62290       -0.53780       -1.31200
O          0.57910        0.00690       -2.38540
H          0.53410        2.15200       -0.18950
H         -1.10850        1.68560       -0.63590
H         -0.64260        1.73240        1.07980
H          0.86490       -0.37250        2.06420
H          2.64270       -1.59230        0.65330
H          1.42750       -2.82390        1.00790
H          2.09510       -2.08960       -1.65360
H          0.49140       -2.67730       -1.21820
