9
gdb 929	6.22215	3.02768	2.03665	3.3389	45.97	-0.2954	-0.0947	0.2008	554.5818	0.05672	-375.420808	-375.415714	-375.41477	-375.449982	17.728
O         -0.04330       -0.02620        0.00360
C          0.05030        1.15670        0.00860
O         -1.19510        1.90080        0.02910
C         -1.15440        3.22080        0.03530
N         -0.09050        3.94720        0.02460
C          1.07300        3.21130        0.00510
N          1.19580        1.92130       -0.00310
H         -2.14540        3.67010        0.05090
H          1.98960        3.79810       -0.00410
