18
gdb 8699	2.91681	1.54041	1.30772	3.7279	64.09	-0.2504	-0.032	0.2184	1003.438	0.150989	-422.077058	-422.067557	-422.066613	-422.110937	33.84
C          0.03520        1.53820       -0.04750
C         -0.00620       -0.00230        0.04330
C          0.69200       -0.49730        1.32930
O          2.03310       -0.07460        1.43080
C         -1.46170       -0.50240        0.03340
O         -2.11130       -0.00390       -1.12580
C          0.70580       -0.55250       -1.18570
O          1.80740       -1.05550       -1.17720
H          1.06130        1.88850        0.07960
H         -0.36080        1.89440       -1.00100
H         -0.57740        1.96920        0.75200
H          0.16660       -0.08990        2.20100
H          0.61250       -1.59540        1.38110
H          2.48500       -0.47900        0.67730
H         -1.47800       -1.60400        0.05380
H         -1.95670       -0.14830        0.95210
H         -3.00050       -0.36830       -1.15770
H          0.14040       -0.45070       -2.13380
