16
gdb 14366	4.27186	2.25373	1.97693	0.9	63.94	-0.2492	0.0748	0.324	725.8308	0.132381	-383.651842	-383.645916	-383.644971	-383.681976	23.857
C         -0.02710        1.59730        0.07520
C          1.47800        1.26270        0.03240
C          1.16950        0.04330        1.00910
C          0.08220        0.04500       -0.09840
O         -0.89880       -0.74830       -0.68620
C         -0.75250       -0.41660       -2.09100
O          0.40600        0.42020       -2.29210
C          1.17220        0.23210       -1.11410
H         -0.42060        1.95530        1.02850
H         -0.42540        2.15220       -0.77330
H          2.31840        1.94710        0.12250
H          1.88220       -0.78440        1.00760
H          0.86250        0.32170        2.01850
H         -0.65090       -1.36000       -2.64240
H         -1.62760        0.14260       -2.43930
H          1.91170       -0.56650       -1.24030
