20
gdb 13133	3.87337	1.11644	0.94589	1.0289	71.34	-0.2427	0.0812	0.3239	1266.5188	0.176091	-386.118038	-386.108786	-386.107841	-386.152897	32.607
C         -0.22670        1.55950       -0.12740
C          0.02020        0.05810       -0.05880
C          1.33660       -0.46160       -0.67960
O          1.80280       -0.95990        0.58910
C          0.57670       -0.56480        1.25570
C          0.83240        0.31090        2.46950
C          1.61190       -0.43040        3.54980
O          1.79670        0.46170        4.64000
H          0.65190        2.13130        0.18590
H         -0.46580        1.85790       -1.15390
H         -1.06750        1.85850        0.50710
H         -0.86230       -0.47520       -0.42220
H          1.23120       -1.26270       -1.42240
H          2.00300        0.31080       -1.08630
H          0.01470       -1.45950        1.56520
H          1.39700        1.20450        2.18570
H         -0.12560        0.64560        2.88690
H          1.05350       -1.32900        3.86120
H          2.57250       -0.76630        3.13420
H          2.35600        0.02660        5.28980
