16
gdb 16523	3.75723	2.44306	1.8935	2.0771	63.31	-0.2138	0.0777	0.2915	743.0299	0.131021	-383.692946	-383.686612	-383.685667	-383.723007	25.398
C          0.03720        1.45170        0.02350
C         -0.03130       -0.04550       -0.00830
O          0.94600       -0.64400       -0.83790
C          0.45450       -1.92690       -1.24230
C         -0.67730       -2.20630       -0.26700
O         -0.08280       -2.21040        1.07080
C         -0.45930       -0.84240        1.21810
C         -1.32060       -0.82130       -0.02480
H          1.03010        1.78070        0.34520
H         -0.15830        1.87260       -0.96780
H         -0.70020        1.85690        0.72300
H          0.10140       -1.89900       -2.28530
H          1.26180       -2.65960       -1.15170
H         -1.29470       -3.08540       -0.45440
H         -0.60020       -0.45320        2.22090
H         -2.32240       -0.47940       -0.24820
