18
gdb 17034	3.6043	1.7107	1.38142	2.4265	72.98	-0.2452	-0.025	0.2202	945.2951	0.153745	-347.759041	-347.751571	-347.750626	-347.790816	28.356
C         -0.22240        1.52670        0.18060
C          0.01410        0.02770        0.07200
C          1.14990       -0.56030       -0.82870
C          2.17990       -0.11140        0.24770
C          0.98940       -0.73000        1.04210
C          1.02700       -1.89220        0.00960
C         -0.13520       -2.82020       -0.19540
O         -1.15860       -2.83010        0.44450
H          0.68770        2.11430        0.32210
H         -0.71720        1.89730       -0.72420
H         -0.88830        1.74080        1.02370
H         -0.94630       -0.47650       -0.04480
H          1.24930       -0.49090       -1.91350
H          3.12360       -0.66300        0.27620
H          2.35500        0.95840        0.35510
H          0.89460       -0.83460        2.12330
H          1.95030       -2.48600       -0.00680
H          0.02480       -3.56000       -1.01590
