16
gdb 2431	5.32142	2.85064	2.44073	1.6011	63.9	-0.2317	0.0969	0.3286	622.1287	0.138081	-288.578155	-288.572298	-288.571354	-288.607328	23.414
C         -0.08320        1.49320       -0.00050
C         -0.00650        0.00120       -0.06550
C          0.84250       -0.86460       -1.00120
C          0.03070       -2.06750       -0.45270
C          0.44030       -2.08030        1.02740
N         -0.24740       -0.76060        1.21950
C         -1.07030       -1.03230        0.00160
H          0.86610        1.91810        0.34520
H         -0.30450        1.91860       -0.98540
H         -0.86380        1.80670        0.69760
H          0.60080       -0.64660       -2.04520
H          1.93100       -0.88450       -0.86960
H         -0.10340       -2.97360       -1.04070
H         -0.08620       -2.83060        1.62330
H          1.50990       -2.09570        1.27120
H         -2.15210       -0.99860       -0.02450
