16
gdb 1528	8.25695	1.16933	1.05725	2.2747	58.61	-0.2445	0.035	0.2795	1087.5512	0.135431	-362.941094	-362.932206	-362.931261	-362.975697	29.342
C          0.06760        1.42110        0.07070
N         -0.08840       -0.01870        0.00990
C         -1.30030       -0.62250       -0.16330
O         -2.34650       -0.00020       -0.24490
C         -1.24450       -2.14250       -0.26840
C         -2.53370       -2.78960        0.22130
O         -2.41530       -4.18710       -0.00430
H          0.52040        1.73350        1.01820
H          0.68760        1.79350       -0.75280
H         -0.92900        1.85670       -0.00900
H          0.73190       -0.59830        0.06880
H         -1.09870       -2.41180       -1.32220
H         -0.38920       -2.55030        0.28180
H         -2.68000       -2.56600        1.28950
H         -3.37960       -2.35120       -0.32210
H         -3.24680       -4.59920        0.24700
