17
gdb 8097	2.82125	2.12467	1.5278	3.0395	70.63	-0.2546	0.0228	0.2774	895.4827	0.141335	-363.847564	-363.839739	-363.838795	-363.879327	29.626
C          0.03860        1.59910        0.03800
C          0.07390        0.08820        0.05330
C          1.31670       -0.76080       -0.27920
C          2.50030       -0.15430        0.39100
N          3.67230        0.13000        0.04880
O          1.88010       -0.04920        1.63720
C          0.70540       -0.74740        1.11410
C          0.10290       -1.79310        1.98940
H          0.91660        2.02040        0.53110
H          0.00550        1.97710       -0.98850
H         -0.85050        1.96640        0.56160
H         -0.81680       -0.38780       -0.35580
H          1.33270       -1.51250       -1.05510
H          4.20420        0.50090        0.83820
H         -0.32920       -1.34110        2.88890
H         -0.69630       -2.31670        1.45710
H          0.85530       -2.52360        2.30090
