12
gdb 21274	7.34064	1.387	1.1753	2.9353	52.53	-0.2524	0.0052	0.2576	941.1285	0.084091	-451.793239	-451.786242	-451.785298	-451.824707	24.572
C          0.03220        1.36170       -0.00300
O         -0.01610       -0.07430       -0.07080
C          0.57870       -0.64800       -1.09110
N          0.63340       -1.93040       -1.30960
C          1.35260       -1.95630       -2.47550
O          1.65880       -3.09840       -3.08670
N          1.73090       -0.80320       -2.97040
O          1.19050        0.10430       -2.00430
H          1.06650        1.70870        0.05930
H         -0.45010        1.80390       -0.87820
H         -0.51160        1.62410        0.90320
H          1.28510       -3.81160       -2.55460
