16
gdb 12984	2.75343	2.55432	1.58813	2.1249	64.55	-0.2365	-0.0209	0.2156	823.9994	0.129997	-383.748516	-383.74115	-383.740205	-383.780022	27.59
C         -0.24780        1.53050       -0.00160
C          0.06220        0.05610        0.01960
C         -0.71150       -0.91690        0.92970
C          0.75480       -0.72160        1.11530
O          1.60900       -1.70910        0.58470
C          1.40290       -1.80270       -0.81710
C          0.55470       -0.59150       -1.23520
O          0.38540       -0.20940       -2.36570
H          0.62960        2.11470       -0.29630
H         -1.04250        1.73970       -0.72420
H         -0.57680        1.87990        0.98110
H         -1.38330       -0.44170        1.63670
H         -1.06950       -1.85800        0.52590
H          1.16140       -0.25720        2.00610
H          2.36800       -1.78360       -1.33380
H          0.89200       -2.73730       -1.08950
