13
gdb 23899	4.80298	0.90909	0.9047	1.4635	48.18	-0.2655	-0.0353	0.2302	1208.2135	0.090114	-530.123573	-530.115474	-530.114529	-530.157746	27.265
F          0.13700        0.11200       -0.14160
C         -0.01810        1.43730        0.00020
F          1.21030        1.98130        0.03840
F         -0.62680        1.89420       -1.10300
C         -0.81500        1.77790        1.24360
C         -0.14440        1.26200        2.52470
C         -0.83610        1.78340        3.76650
O         -1.22850        1.09790        4.67250
H         -0.92330        2.86730        1.26820
H         -1.81370        1.34860        1.12170
H         -0.12530        0.17070        2.55790
H          0.89190        1.62610        2.54900
H         -0.95730        2.89250        3.79000
