16
gdb 13554	4.27054	1.32725	1.1565	1.37	65.35	-0.2406	0.0141	0.2548	1022.4638	0.131318	-379.903646	-379.895654	-379.89471	-379.936181	29.782
N         -0.91650       -0.06360       -0.09690
C          0.37100       -0.65780       -0.49730
C          1.23330        0.30710       -1.21280
N          1.88380        1.08700       -1.76540
C          1.11860       -1.27110        0.68510
C          0.92130       -0.78080        2.11150
C          0.37940       -2.12450        1.68930
O         -0.98350       -2.37200        1.58030
H         -0.75640        0.81300        0.39130
H         -1.46580        0.15850       -0.92170
H          0.13810       -1.46520       -1.20320
H          2.12260       -1.58590        0.41720
H          1.79190       -0.72490        2.75580
H          0.18620       -0.00420        2.29430
H          0.89340       -3.00880        2.05270
H         -1.37360       -1.61090        1.11790
