14
gdb 20321	6.07107	1.30056	1.11984	2.299	68.03	-0.2451	0.02	0.2651	1011.9326	0.108264	-341.571974	-341.564767	-341.563822	-341.604303	26.522
C         -0.29820       -0.94280       -0.80780
C         -0.07560        0.05800       -0.18120
C          0.18780        1.28410        0.56620
C          1.50690        1.93060        0.22580
N          2.22170        2.51400        1.18550
N          3.29550        3.01590        0.54520
C          3.28700        2.76290       -0.78530
C          2.13230        2.05500       -1.03620
H         -0.49380       -1.83270       -1.35260
H         -0.63040        1.99430        0.38080
H          0.17440        1.08290        1.64300
H          3.99760        3.49880        1.07890
H          4.08470        3.09370       -1.43140
H          1.78940        1.67080       -1.98240
