19
gdb 11542	4.01897	1.1837	0.96094	3.7385	72.87	-0.2349	0.04	0.2749	1232.9783	0.165171	-365.084834	-365.075723	-365.074779	-365.119559	32.135
C          0.93370        1.11240        0.02490
N          0.96020       -0.18150       -0.62580
C         -0.10660       -0.67770       -1.31500
O         -1.15440       -0.07100       -1.45380
C          0.07940       -2.08480       -1.89460
C          1.49940       -2.55080       -2.13670
C          2.30070       -3.21500       -1.03270
C          1.80930       -4.02260       -2.20730
H          1.73640        1.76070       -0.34410
H         -0.02950        1.57010       -0.20350
H          1.03470        1.01880        1.11260
H          1.78090       -0.75840       -0.54520
H         -0.42600       -2.77820       -1.20920
H         -0.50150       -2.10370       -2.82190
H          2.06870       -1.92120       -2.81590
H          3.36330       -3.00840       -0.96130
H          1.81280       -3.37080       -0.07550
H          0.99480       -4.71850       -2.03580
H          2.53610       -4.36080       -2.93700
