14
gdb 8266	6.64285	0.93257	0.91392	4.5649	67.78	-0.2643	0.0091	0.2734	1267.9762	0.105672	-382.542538	-382.534417	-382.533473	-382.57736	27.51
C          0.22860        1.60270       -0.21980
C          0.10110        0.15880       -0.10090
C         -0.00880       -1.03640       -0.00590
C         -0.12500       -2.47140        0.10990
C          0.19060       -3.12150        1.48020
C         -1.27990       -3.53320        1.44230
O         -2.04190       -4.14280        2.11890
O         -1.52810       -2.93430        0.23300
H          1.28190        1.90090       -0.25820
H         -0.25490        1.96800       -1.13210
H         -0.23230        2.11280        0.63250
H          0.33440       -2.98330       -0.73990
H          0.89650       -3.95290        1.46590
H          0.44410       -2.42580        2.28020
