12
gdb 3871	7.35938	2.20997	1.70641	3.1067	52.05	-0.1963	0.0428	0.2391	682.1128	0.09348	-352.905052	-352.898648	-352.897704	-352.934777	23.962
N          0.01590        1.35060        0.14110
C         -0.03260       -0.02740        0.04970
N         -1.13140       -0.76040        0.08460
C         -0.63500       -2.03700        0.04880
N         -1.47570       -3.13080        0.13210
N          0.67950       -2.14600       -0.02470
N          1.05680       -0.81440       -0.02330
H          0.70570        1.79390       -0.44970
H         -0.90040        1.75650        0.00980
H         -2.39330       -2.94970       -0.24760
H         -1.06420       -3.97930       -0.22880
H          2.02950       -0.57100        0.03990
