18
gdb 8446	4.13178	1.77327	1.55827	3.1833	71.75	-0.2318	-0.0032	0.2286	876.2447	0.154909	-347.823449	-347.816499	-347.815555	-347.854176	27.992
C         -0.01570        1.52050        0.02290
C          0.01250        0.01010        0.02660
C          0.96050       -0.80640       -0.90950
C          0.71000       -1.95060        0.12790
C          0.65320       -0.80690        1.19420
C         -0.77650       -2.18680       -0.08920
O         -1.37910       -3.22230       -0.17760
C         -1.32190       -0.74320       -0.16860
H          0.98740        1.93520        0.16920
H         -0.40320        1.90650       -0.92680
H         -0.65820        1.90610        0.82260
H          0.65550       -0.97060       -1.94740
H          1.99180       -0.44690       -0.87140
H          1.34580       -2.82800        0.22060
H          1.65240       -0.44750        1.45290
H          0.06410       -0.97160        2.10150
H         -2.05730       -0.55200        0.62020
H         -1.80090       -0.55150       -1.13460
