18
gdb 6569	2.95318	2.02167	1.51327	2.3124	68.01	-0.2432	0.0707	0.3139	891.1229	0.152614	-384.891225	-384.88314	-384.882195	-384.922941	31.611
C         -0.13660        1.56850       -0.00340
C          0.04060        0.05900        0.02070
C          1.20010       -0.65220       -0.73430
O          1.34220       -0.59100       -2.10600
C          2.19500       -0.15790        0.36500
C          0.90710       -0.65720        1.09620
O          0.61390       -0.60340        2.44390
C          0.92880       -1.90550        0.15760
H          0.79400        2.12110        0.14530
H         -0.55760        1.88200       -0.96430
H         -0.83420        1.87750        0.78190
H         -0.92650       -0.43320       -0.13540
H          2.12780       -1.08880       -2.35610
H          3.09530       -0.76490        0.50740
H          2.42560        0.90660        0.40480
H          1.28290       -1.10260        2.92430
H         -0.02250       -2.42080        0.00390
H          1.76210       -2.60320        0.28900
