16
gdb 4459	3.48581	1.78496	1.19804	2.0457	68.11	-0.1898	0.0558	0.2456	984.6806	0.130761	-379.981435	-379.973197	-379.972253	-380.01384	30.04
C         -0.15090        1.52970        0.12900
C         -0.01960        0.05270       -0.01500
C          0.04280       -0.78760       -1.09370
C         -0.00560       -0.45690       -2.54920
N          0.16790       -2.11340       -0.67700
C          0.17900       -2.05280        0.62340
O          0.28320       -3.08410        1.48130
N          0.07060       -0.78950        1.10010
H          0.70470        1.97500        0.65340
H         -0.20910        1.99820       -0.85570
H         -1.05560        1.81550        0.68150
H          0.90310       -0.79440       -3.06050
H         -0.85040       -0.95480       -3.03850
H         -0.10600        0.61900       -2.71470
H          0.34780       -3.87740        0.93490
H          0.05980       -0.52130        2.06910
