16
gdb 18271	4.45912	1.70048	1.39812	2.5282	60.99	-0.2576	0.0765	0.3342	900.1294	0.130221	-420.844601	-420.837258	-420.836314	-420.876621	26.474
C          0.09650        1.30980        0.15220
O          0.03770       -0.10010        0.01520
C          0.60900       -0.57420       -1.15220
O          2.01690       -0.33890       -1.15970
C          2.71530       -1.44990       -1.70930
C          1.76020       -2.62080       -1.62130
O          1.22570       -2.79130       -0.30730
C          0.44860       -2.07720       -1.26960
H          1.13020        1.65920        0.24990
H         -0.36940        1.81310       -0.70880
H         -0.46030        1.56290        1.05650
H          0.15390       -0.07220       -2.02900
H          2.98960       -1.26930       -2.76050
H          3.63280       -1.59980       -1.13020
H          1.90780       -3.52010       -2.21240
H         -0.50370       -2.51280       -1.55580
