11
gdb 3804	8.07499	2.25881	1.7851	2.2981	48.03	-0.265	-0.0072	0.2578	654.3669	0.079374	-376.564063	-376.558121	-376.557176	-376.59415	20.191
C          0.00950        1.40210       -0.03660
O          0.01770       -0.03490       -0.02760
C          0.59500       -0.64310       -1.03920
N          0.69420       -1.93210       -1.19450
C          1.36770       -1.99500       -2.38430
N          1.67360       -0.85560       -2.94390
O          1.14280        0.08360       -2.01940
H          1.03020        1.79320       -0.03400
H         -0.52380        1.77890       -0.91320
H         -0.50930        1.69270        0.87570
H          1.64290       -2.92760       -2.85660
