17
gdb 2100	4.58846	2.32032	1.68173	1.762	65.34	-0.2416	0.0165	0.2581	761.2575	0.150411	-309.735245	-309.728618	-309.727674	-309.765479	25.872
O          0.13360        1.41420        0.14480
C          0.05300       -0.00630        0.03320
C         -1.39670       -0.50660        0.06860
C         -1.46910       -1.99880       -0.27590
C         -0.93660       -2.26300       -1.69330
C          0.32130       -1.48320       -1.97900
C          0.76980       -0.49760       -1.20140
H         -0.25510        1.78470       -0.65570
H          0.58030       -0.36740        0.92730
H         -1.83400       -0.29920        1.05010
H         -1.97770        0.06710       -0.66780
H         -0.86580       -2.56410        0.44620
H         -2.49600       -2.36670       -0.18070
H         -0.74800       -3.33430       -1.83760
H         -1.70120       -2.00090       -2.44060
H          0.88010       -1.76110       -2.87040
H          1.69470        0.02330       -1.43900
