14
gdb 1842	5.95949	2.07939	1.57208	5.9497	63.01	-0.2157	-0.008	0.2078	748.7227	0.114878	-324.628594	-324.622	-324.621055	-324.65901	24.681
N          0.05300        1.34670        0.10870
C         -0.03700       -0.00700        0.03460
C         -1.15500       -0.77510        0.02150
C         -0.80930       -2.18960       -0.01410
O         -1.55670       -3.14560       -0.03680
C          0.73340       -2.28680       -0.02340
C          1.23260       -0.83230        0.00920
H          0.92690        1.79160       -0.11680
H         -0.77150        1.90520       -0.03820
H         -2.17700       -0.41930        0.03420
H          1.06500       -2.86910        0.84060
H          1.05740       -2.82900       -0.91600
H          1.83930       -0.57080       -0.86700
H          1.84640       -0.61010        0.89020
