18
gdb 17926	2.88844	2.32881	2.32219	1.8855	70.76	-0.234	0.0781	0.3121	767.6264	0.154992	-347.762228	-347.755627	-347.754683	-347.792484	26.783
C         -0.04200        1.56900       -0.01280
C          0.00490        0.07030       -0.01140
C          0.62510       -0.88280       -1.11940
C          1.52580       -1.51760       -0.02630
C          0.63910       -0.87040        1.06110
O         -0.60580       -1.58350        1.23450
C         -1.19090       -0.92860        0.08680
C         -0.75130       -1.59000       -1.23860
H          0.96580        1.99870       -0.05000
H         -0.59360        1.94910       -0.88050
H         -0.53440        1.95060        0.88900
H          1.10110       -0.52940       -2.03450
H          1.62580       -2.60630       -0.00080
H          2.52190       -1.06170       -0.02830
H          1.07720       -0.57340        2.01720
H         -2.24220       -0.67900        0.25000
H         -1.32720       -1.18410       -2.07750
H         -0.77430       -2.68260       -1.27860
