12
gdb 4694	6.34086	1.42341	1.16385	3.3544	70.94	-0.2023	-0.0233	0.179	949.423	0.084005	-377.516234	-377.509194	-377.50825	-377.547289	26.186
N          0.16890        1.33870        0.17460
C         -0.03860       -0.01720        0.04720
C         -1.13930       -0.82510       -0.01540
N         -0.72150       -2.14070       -0.04470
C          0.57490       -2.09300       -0.00390
O          1.06430       -0.79860        0.05620
C          1.51190       -3.14080       -0.01830
C          2.31890       -4.03400       -0.02980
H          1.03940        1.65750       -0.22960
H         -0.61360        1.89920       -0.13060
H         -2.18120       -0.55100       -0.03980
H          3.02460       -4.82740       -0.04020
