13
gdb 2744	4.60652	2.54677	1.67495	4.5559	57.55	-0.2572	-0.0271	0.2301	704.6149	0.102631	-340.65539	-340.6489	-340.647956	-340.686019	22.75
N         -0.05420        1.23280        0.42020
C         -0.04090        0.01970        0.09430
C         -1.09900       -0.96810       -0.38870
C          0.03980       -2.03310       -0.44530
N          0.96200       -0.98290        0.02680
C          2.29790       -0.95320        0.30720
O          2.88580        0.03280        0.69450
H          0.88030        1.54080        0.69400
H         -1.88930       -1.17160        0.33530
H         -1.54590       -0.71480       -1.35120
H         -0.06560       -2.86890        0.25120
H          0.27930       -2.41010       -1.44290
H          2.78690       -1.93340        0.14170
