16
gdb 21315	7.02743	1.11906	0.99868	1.4335	67.62	-0.241	0.0246	0.2656	1155.546	0.131858	-379.927819	-379.920071	-379.919127	-379.960953	27.284
C         -0.10610        1.41020       -0.18930
O         -0.05180        0.01130       -0.32670
C         -1.21760       -0.62630        0.15830
C         -1.04530       -2.10670        0.03910
N         -2.04930       -2.87210       -0.38360
N         -1.55860       -4.12510       -0.33360
C         -0.27390       -4.17660        0.09570
C          0.09930       -2.87660        0.35330
H          0.83250        1.81350       -0.57710
H         -0.94230        1.84620       -0.75880
H         -0.21660        1.71490        0.86430
H         -1.38470       -0.34010        1.21240
H         -2.11090       -0.31740       -0.40590
H         -2.14610       -4.88920       -0.62000
H          0.25950       -5.11060        0.17740
H          1.05470       -2.52210        0.70140
