11
gdb 749	9.28884	3.90083	2.79631	0.4905	47.91	-0.2587	-0.0011	0.2577	460.0451	0.087299	-281.476967	-281.471735	-281.470791	-281.506215	17.47
C         -0.00760        1.43570        0.00980
N         -0.02890       -0.01280        0.00210
N         -0.00890       -0.71130       -1.12700
C          0.03310       -1.97870       -0.70910
C          0.04120       -1.98630        0.69130
N          0.00410       -0.72350        1.12330
H          1.02170        1.80770        0.00160
H         -0.52830        1.79200       -0.87880
H         -0.51040        1.78170        0.91260
H          0.04680       -2.79510       -1.41310
H          0.06300       -2.81030        1.38620
