14
gdb 20653	3.39813	2.28779	1.37876	2.7744	67.29	-0.2354	-0.0568	0.1787	843.6567	0.109376	-378.772692	-378.765925	-378.76498	-378.803632	25.218
C         -0.02870        1.51750        0.01290
C         -0.00690        0.02320       -0.03970
C         -0.03790       -0.71840       -1.17920
C         -0.01300       -2.14330       -1.12020
N          0.03950       -2.80980       -0.00180
N          0.06950       -2.06800        1.11330
C          0.05230       -0.67760        1.24440
O          0.08530       -0.15320        2.34610
H          0.85960        1.89320        0.53200
H         -0.07340        1.95460       -0.98700
H         -0.88680        1.86550        0.59800
H         -0.08200       -0.23400       -2.15060
H         -0.03730       -2.74310       -2.02280
H          0.11020       -2.59270        1.97750
