15
gdb 19578	3.42235	2.50831	2.04755	3.647	63.44	-0.243	-0.0113	0.2318	708.7985	0.121148	-362.614446	-362.608659	-362.607715	-362.644068	23.805
O          0.00440       -0.02000        0.05910
C         -0.01360        1.16720       -0.00230
C         -1.05300        2.31230        0.02880
N         -0.02690        2.93820        0.94520
C          0.99250        2.34200        0.00190
C          0.70320        3.00800       -1.36550
C         -0.06050        2.21960       -2.40520
C         -0.81920        2.98580       -1.34550
H         -2.06980        2.20080        0.40000
H         -0.04260        3.95760        0.88130
H          2.02150        2.26020        0.34630
H          1.28050        3.87700       -1.65970
H         -0.07970        2.63660       -3.40750
H         -0.04450        1.13470       -2.38630
H         -1.42900        3.83760       -1.62410
