22
gdb 10077	3.18331	1.1531	0.95256	2.7274	78.7	-0.2472	-0.0192	0.2279	1299.7871	0.197933	-350.225572	-350.215385	-350.214441	-350.261525	35.862
C          0.19540        1.06680        0.57070
C         -0.11420       -0.41660        0.34530
C         -1.56470       -0.71360       -0.08410
C         -1.97750       -0.04220       -1.41430
C         -1.24260       -0.53170       -2.66830
C         -1.79960       -2.24330       -0.10700
C         -3.23630       -2.60090       -0.39920
O         -3.61200       -3.26230       -1.33370
H          1.20980        1.19520        0.96110
H          0.12590        1.64770       -0.35380
H         -0.49710        1.51060        1.29500
H          0.58060       -0.82890       -0.39700
H          0.08460       -0.96520        1.27470
H         -2.22230       -0.29700        0.69410
H         -3.05470       -0.19290       -1.56000
H         -1.84540        1.04080       -1.31400
H         -0.15800       -0.40540       -2.58680
H         -1.44610       -1.58770       -2.86830
H         -1.57150        0.03440       -3.54510
H         -1.15840       -2.74100       -0.83990
H         -1.55480       -2.64790        0.88540
H         -3.96860       -2.18780        0.33590
