16
gdb 19015	4.88983	1.90789	1.71807	1.6373	63.24	-0.2353	0.0693	0.3046	789.3548	0.131039	-383.672461	-383.666244	-383.6653	-383.702597	24.935
C         -0.08840        1.54380       -0.06450
C          0.01820        0.02980        0.03090
O          0.85600       -0.48600       -1.04300
C          1.85360       -1.18930       -0.35720
C          1.27700       -1.93730        0.88340
O          2.52330       -1.72490        1.62250
C          2.28640       -0.44860        0.94360
C          0.75500       -0.51350        1.24860
H          0.89210        2.01480        0.05510
H         -0.49020        1.83350       -1.03930
H         -0.75680        1.93170        0.71130
H         -0.97760       -0.42250       -0.06980
H          2.57900       -1.65300       -1.02190
H          0.78230       -2.90450        0.96850
H          2.99970        0.35930        1.10250
H          0.38920       -0.30830        2.25300
