20
gdb 19425	3.71296	1.89481	1.58109	0.1893	78.21	-0.2417	0.0896	0.3313	897.3689	0.179639	-311.85957	-311.852681	-311.851737	-311.890231	28.631
C         -0.04640        1.50180        0.01100
C          1.27910        0.77550       -0.05340
C         -0.01340       -0.00220        0.00370
C         -0.38100       -0.82190        1.24320
C         -0.31020       -2.29600        0.77480
C         -0.62880       -2.24860       -0.71490
C         -1.81900       -1.43210       -1.15650
C         -0.43560       -0.82260       -1.18810
H         -0.30750        2.00480        0.93700
H         -0.39210        2.01210       -0.88220
H          1.82700        0.79650       -0.99050
H          1.91090        0.78520        0.82930
H          0.27830       -0.61800        2.09150
H         -1.39790       -0.57590        1.56980
H          0.70490       -2.68780        0.90960
H         -0.98560       -2.94440        1.34350
H         -0.32870       -3.08790       -1.33270
H         -2.26440       -1.68970       -2.11140
H         -2.53520       -1.08460       -0.41860
H          0.01030       -0.59800       -2.15140
