11
gdb 1368	6.73046	1.56457	1.27919	0.572	53.76	-0.2571	-0.1038	0.1533	848.8185	0.074512	-343.232602	-343.225157	-343.224213	-343.264881	24.902
O         -0.84520        1.33330        0.36670
C          0.12180        0.98370       -0.25660
C          1.40270        1.82350       -0.37210
O          2.32080        1.38960       -1.01910
C          1.38030        3.15810        0.36490
C          2.60200        3.93020        0.23900
C          3.61410        4.56650        0.13280
H          0.18730        0.02340       -0.80910
H          0.50820        3.71830        0.00030
H          1.14170        2.94680        1.41650
H          4.50890        5.13090        0.03990
