16
gdb 15973	3.24139	1.74755	1.31659	1.3119	65.51	-0.2395	-0.033	0.2065	936.5513	0.128952	-383.707462	-383.699802	-383.698858	-383.740319	27.658
O          0.12100       -0.14430        0.01280
C          0.09900        1.05150        0.14870
C          1.29780        1.95390        0.01380
C          1.03020        3.28210       -0.74100
O          1.18760        4.06470        0.46050
C          1.51770        2.89470        1.20750
C          1.14810        2.74170        2.64650
C          2.60580        2.88660        2.22750
H         -0.84470        1.58820        0.40240
H          2.16620        1.37850       -0.30810
H          1.78010        3.53100       -1.49910
H          0.02700        3.39170       -1.16980
H          0.67730        3.59560        3.12160
H          0.80350        1.77580        3.00150
H          3.25450        2.01910        2.29170
H          3.08960        3.83690        2.42640
