17
gdb 619	5.66502	2.6546	2.10535	1.2559	60.65	-0.22	0.0865	0.3065	665.4811	0.154112	-251.726162	-251.719021	-251.718077	-251.756782	25.815
C         -0.22540        1.43690       -0.01720
C          0.31380        0.00960        0.14230
C          0.81290       -0.58290       -1.16120
C          0.85240       -2.05660       -1.38550
N         -0.05070       -1.21630       -2.16370
C         -1.47750       -1.35950       -1.92250
H          0.53760        2.09970       -0.43980
H         -1.09110        1.46320       -0.68640
H         -0.53290        1.85380        0.94680
H          1.15230        0.01440        0.85090
H         -0.45100       -0.63290        0.59110
H          1.60140        0.01280       -1.62350
H          1.66820       -2.52440       -1.93150
H          0.41680       -2.68070       -0.60410
H         -1.75180       -1.59590       -0.88240
H         -1.99150       -0.43690       -2.21210
H         -1.85660       -2.16780       -2.55650
