13
gdb 7033	6.45782	0.91543	0.839	2.2773	59.12	-0.2684	-0.0444	0.224	1277.4864	0.0926	-435.771957	-435.763578	-435.762633	-435.806664	27.308
N         -0.18480        1.26570        0.43020
C         -0.03810        0.08610        0.02570
O         -1.09420       -0.78340        0.20240
C         -0.95090       -2.06720       -0.24480
O          0.03840       -2.49930       -0.77250
C         -2.20490       -2.86450        0.02040
C         -1.88920       -4.28560        0.48020
O         -2.58350       -4.89390        1.24750
H          0.66010        1.80430        0.24400
H          0.81870       -0.38050       -0.45980
H         -2.87300       -2.36920        0.72490
H         -2.73220       -2.95580       -0.94040
H         -0.97110       -4.71790        0.03360
