16
gdb 17950	3.26602	2.28245	2.0907	1.1459	62.98	-0.227	0.0735	0.3006	739.3998	0.132058	-383.701023	-383.694711	-383.693767	-383.731043	25.603
O         -0.11430        1.40190       -0.03670
C          0.02270        0.03240       -0.02330
C         -1.03750       -1.03690        0.07900
C         -0.45790       -1.78870       -1.12120
C          0.81860       -0.88940       -0.99400
O          1.84170       -1.51050       -0.22970
C          1.28380       -1.77330        1.06810
C          0.04930       -0.88550        1.16020
H          0.66470        1.79090        0.37740
H         -2.08340       -0.93200        0.34100
H         -0.28930       -2.86680       -1.03640
H         -1.01610       -1.57800       -2.03750
H          1.25340       -0.47810       -1.90380
H          1.04990       -2.84240        1.16840
H          2.03300       -1.51920        1.82730
H         -0.28720       -0.50970        2.11910
