16
gdb 12393	3.00019	2.18433	1.35017	1.9335	60.74	-0.2377	-0.0328	0.2048	891.7779	0.130192	-420.890041	-420.88251	-420.881565	-420.922144	27.55
C          0.14350        1.55910       -0.08850
C          0.11490        0.04360        0.00600
O          0.69710       -0.50210       -1.17720
C          0.85770       -1.89010       -1.11020
O          1.79450       -2.26610       -0.13680
C          1.36620       -1.91070        1.16590
C          0.80890       -0.49030        1.26690
O          0.84060        0.12730        2.30320
H          1.17270        1.90930       -0.20200
H         -0.43660        1.89080       -0.95260
H         -0.27390        1.99460        0.82070
H         -0.93340       -0.30640        0.08220
H         -0.11610       -2.37960       -0.91130
H          1.25350       -2.21480       -2.07380
H          0.56930       -2.59290        1.51580
H          2.21540       -2.01210        1.84440
