16
gdb 17439	2.7256	2.6614	1.91601	1.5738	63.5	-0.2446	0.0717	0.3163	756.3536	0.130733	-383.685171	-383.678392	-383.677448	-383.715527	27.519
O         -0.10990        1.48280       -0.03310
C         -0.04250        0.07630       -0.06430
C         -1.35980       -0.67170       -0.11600
C         -1.75940       -0.79930       -1.58940
C         -0.69490       -0.07470       -2.41640
C          0.31690       -0.63930       -1.38940
O          1.66500       -0.78420       -1.66280
C         -0.75980       -1.75470       -0.99060
H          0.79100        1.82170       -0.00670
H          0.59110       -0.31950        0.74200
H         -2.07910       -0.79190        0.68270
H         -2.78330       -1.00750       -1.86940
H         -0.57140       -0.54870       -3.39660
H         -0.74490        1.01350       -2.51540
H          1.76320       -1.13980       -2.55240
H         -0.73530       -2.82780       -0.87560
