24
gdb 17972	2.24434	2.1305	1.29579	0.0427	83.98	-0.284	0.0785	0.3625	1064.7482	0.227422	-314.288168	-314.280069	-314.279125	-314.320104	32.614
C          0.00170        1.50910        0.17340
C          1.43790        2.06250        0.06920
C          2.34530        1.48250       -1.02470
C          1.93870        1.71550       -2.48650
C          0.61770        1.08220       -2.96990
C          0.36680       -0.37720       -2.52410
C         -0.57520       -0.56040       -1.31960
C         -0.13900       -0.02670        0.05760
H         -0.39550        1.83070        1.14330
H         -0.64490        1.98520       -0.57170
H          1.38680        3.15410       -0.04150
H          1.93900        1.88470        1.03010
H          3.34490        1.91420       -0.88740
H          2.47490        0.40670       -0.85320
H          1.90520        2.79480       -2.68710
H          2.75080        1.32220       -3.11250
H         -0.23420        1.70070       -2.66720
H          0.62540        1.12330       -4.06540
H         -0.08440       -0.92410       -3.36060
H          1.32300       -0.88130       -2.33150
H         -1.54220       -0.10120       -1.57140
H         -0.77660       -1.63440       -1.21320
H          0.79370       -0.51440        0.36970
H         -0.89520       -0.36220        0.77730
