14
gdb 11891	4.91342	1.67243	1.40751	5.1272	57.95	-0.2784	0.0416	0.3201	862.1624	0.107789	-419.711219	-419.704617	-419.703673	-419.742476	24.482
O          0.05630        0.04090       -0.12360
C          0.01010        1.22570       -0.04950
O         -1.11990        1.96810       -0.18190
C         -0.83600        3.34460        0.08290
C          0.68360        3.38900        0.07700
C          1.51690        4.29480       -0.77350
C          1.52480        4.41970        0.74390
O          1.08010        2.03140        0.18340
H         -1.29110        3.95850       -0.69780
H         -1.26460        3.61530        1.05470
H          2.39340        3.86210       -1.24180
H          1.01200        5.05820       -1.35640
H          1.02710        5.26860        1.20180
H          2.40640        4.07060        1.26920
