14
gdb 9007	6.47079	0.86315	0.76872	1.1433	68.15	-0.2466	-0.0985	0.1481	1411.1335	0.102862	-382.533419	-382.524119	-382.523175	-382.569799	29.951
C          0.19890        1.46360       -0.00490
C         -0.00540        0.03070       -0.15410
C         -0.17390       -1.15380       -0.27750
C         -0.38840       -2.58190       -0.41690
C         -1.54170       -3.13100        0.41310
O         -2.25510       -2.49170        1.14390
C         -1.79350       -4.64110        0.28550
O         -1.14000       -5.36800       -0.41500
H          1.23100        1.69050        0.28380
H         -0.00910        1.99470       -0.94010
H         -0.46070        1.87660        0.76590
H         -0.57890       -2.86800       -1.46130
H          0.50690       -3.15960       -0.14530
H         -2.64360       -4.98690        0.91030
