18
gdb 18104	4.34029	1.97885	1.43874	0.4217	81.81	-0.2044	-0.0101	0.1943	880.1211	0.157163	-310.696345	-310.690015	-310.689071	-310.726528	25.947
C         -0.07200        1.49690        0.00800
C          1.42380        1.93530        0.02950
C          2.13880        0.76890       -0.67410
C          3.55350        0.26450       -0.30530
C          3.36740       -1.24520       -0.31170
C          2.07090       -1.60540       -0.32530
C          1.24230       -0.41120       -0.33760
C          0.01340       -0.02030        0.01360
H         -0.63840        1.89390        0.85800
H         -0.57750        1.86850       -0.89690
H          1.59030        2.90890       -0.44030
H          1.76350        2.00230        1.07010
H          2.10980        0.92450       -1.76350
H          4.33340        0.60120       -0.99620
H          3.85790        0.60050        0.69780
H          4.20190       -1.93510       -0.24520
H          1.70010       -2.62160       -0.26490
H         -0.81290       -0.66120        0.29780
