14
gdb 23737	3.32962	2.2086	1.33876	2.3412	66.28	-0.2538	-0.0257	0.2281	855.2033	0.108144	-386.752809	-386.746076	-386.745132	-386.783901	24.968
C         -0.02820        1.52930        0.02870
C         -0.00610        0.02690       -0.01510
C         -0.03550       -0.71420       -1.19580
C         -0.01170       -2.10570       -1.14430
N          0.03880       -2.80340       -0.00750
C          0.06740       -2.10850        1.13140
C          0.04650       -0.72230        1.15750
F          0.07740       -0.08530        2.33530
H          0.86320        1.92110        0.52960
H         -0.07180        1.94960       -0.97830
H         -0.89210        1.89350        0.59430
H         -0.07680       -0.20480       -2.15340
H         -0.03460       -2.68590       -2.06320
H          0.10860       -2.66110        2.06650
