16
gdb 14669	10.84896	0.58754	0.57668	1.711	77.23	-0.247	0.0289	0.2759	1855.0896	0.127352	-346.532644	-346.52295	-346.522005	-346.569124	32.707
O          0.16120        0.79690        1.02570
C         -0.05380        0.17280       -0.23500
C         -1.39050       -0.40590       -0.27550
C         -2.49600       -0.87850       -0.33420
C         -3.82170       -1.48080       -0.37740
C         -3.87250       -2.85630        0.34020
C         -5.19970       -3.45500        0.29200
C         -6.30600       -3.92130        0.23380
H          1.04930        1.16820        1.01320
H          0.04890        0.89650       -1.06030
H          0.68840       -0.62190       -0.41680
H         -4.55450       -0.81040        0.08640
H         -4.14220       -1.61030       -1.41780
H         -3.14010       -3.52740       -0.12280
H         -3.55550       -2.72610        1.38110
H         -7.27780       -4.34700        0.19230
