13
gdb 17165	4.48382	1.90657	1.57097	2.349	58.77	-0.2444	-0.0441	0.2003	778.0595	0.094582	-398.476579	-398.47034	-398.469396	-398.507224	23.371
O          0.05740       -0.09080       -0.04370
C          0.11100        1.10700       -0.16920
C          1.36930        1.89150       -0.09750
N          2.74880        1.33400       -0.03710
C          2.98250        2.81070        0.05110
C          1.83890        3.11580       -0.96060
O          1.19350        4.12450       -0.13610
C          1.66610        3.14770        0.82780
H         -0.79820        1.72760       -0.32570
H          2.91370        0.87770        0.86210
H          3.96840        3.26800        0.12910
H          1.85350        3.23310       -2.04260
H          1.46280        3.30250        1.88850
