14
gdb 7026	7.4254	0.93419	0.84547	5.0758	61.03	-0.2522	-0.0353	0.2169	1252.1891	0.105827	-415.895099	-415.886753	-415.885809	-415.929372	28.043
N         -0.10960        1.43420        0.32160
C         -0.02460        0.20070        0.04580
C         -1.26970       -0.64730       -0.09370
C         -2.54740        0.18020       -0.05920
O         -3.52250       -0.14490        0.56410
N          1.16840       -0.53400       -0.14930
C          2.45320       -0.05030       -0.06740
O          2.76130        1.09480        0.16900
H          0.81320        1.86380        0.38950
H         -1.24630       -1.18360       -1.05530
H         -1.32320       -1.40590        0.69510
H         -2.52160        1.09510       -0.68120
H          1.07470       -1.51900       -0.34890
H          3.19790       -0.84860       -0.24890
