18
gdb 9393	5.46422	0.81391	0.73527	3.5889	70.03	-0.2586	0.0258	0.2844	1508.3585	0.152964	-381.11555	-381.105915	-381.10497	-381.150753	32.834
C          0.03440        1.37970        0.02750
O          0.01040       -0.02760        0.04480
C         -1.29550       -0.55430       -0.02120
C         -1.17810       -2.07470       -0.02290
C         -2.55030       -2.77010       -0.03170
N         -3.30530       -2.42320       -1.23930
C         -2.38350       -4.23060        0.14430
N         -2.27720       -5.37810        0.23980
H          1.08110        1.68930        0.07450
H         -0.41650        1.78540       -0.89190
H         -0.50200        1.80850        0.88900
H         -1.89270       -0.21990        0.84640
H         -1.81760       -0.20620       -0.92430
H         -0.59920       -2.39530       -0.89670
H         -0.61740       -2.39220        0.86140
H         -3.12900       -2.41010        0.82830
H         -2.83530       -2.80440       -2.05640
H         -4.22630       -2.85040       -1.21190
