18
gdb 16773	4.12086	1.55868	1.40168	2.6487	66.65	-0.2374	0.0821	0.3195	939.6587	0.155144	-384.922971	-384.915631	-384.914687	-384.954911	28.243
O          0.12270        1.16090        0.47080
C         -0.01550       -0.22290        0.23650
C         -1.43500       -0.57090       -0.20920
C         -1.71720       -2.09150       -0.31570
C         -2.76020       -2.37080        0.75780
C         -2.38640       -2.06530        2.19840
C         -3.10750       -1.04370        1.35800
O         -2.35500       -0.02240        0.75940
H         -0.63280        1.40410        1.02080
H          0.69550       -0.49350       -0.55280
H          0.24450       -0.81380        1.13150
H         -1.63250       -0.05250       -1.15530
H         -2.11570       -2.34440       -1.30190
H         -0.80020       -2.67510       -0.17520
H         -3.51410       -3.12390        0.56190
H         -2.95440       -2.56820        2.97430
H         -1.34510       -1.88750        2.44510
H         -4.11680       -0.72950        1.59930
