20
gdb 11397	4.98537	1.20682	1.0648	1.0477	77.91	-0.2425	0.0199	0.2624	1180.937	0.176827	-349.009663	-349.001108	-349.000164	-349.042983	31.555
C          0.02290        1.38310       -0.11810
O         -0.12530       -0.00300        0.07360
C          0.64660       -0.52610        1.14740
C          0.14560       -1.94710        1.47790
C          1.40490       -2.79960        1.78370
C          1.33560       -4.23590        1.25240
C          2.51280       -1.96630        1.17660
C          2.11120       -0.74640        0.82830
H          1.04590        1.66370       -0.41190
H         -0.65820        1.67380       -0.92210
H         -0.23850        1.95060        0.78980
H          0.54130        0.15430        2.01150
H         -0.58930       -1.96010        2.28610
H         -0.34660       -2.32490        0.57550
H          1.55810       -2.85250        2.87230
H          1.19810       -4.24230        0.16570
H          2.25350       -4.78890        1.47980
H          0.49870       -4.78120        1.70140
H          3.52500       -2.34620        1.07330
H          2.74040        0.02750        0.40320
