18
gdb 1559	6.07641	1.25876	1.12732	3.9066	66.31	-0.2392	0.0332	0.2724	1077.4188	0.159028	-327.009009	-327.000262	-326.999318	-327.042747	29.774
C         -0.03230        1.56260        0.06510
C          0.00100        0.03350        0.12960
C         -1.38950       -0.58180       -0.08450
N         -1.41530       -2.03340       -0.03900
C         -1.24230       -2.70280        1.23850
C         -1.62160       -2.77500       -1.16480
O         -1.65400       -3.98680       -1.22090
H          0.96420        1.98590        0.21900
H         -0.39580        1.91220       -0.90760
H         -0.69270        1.97900        0.83380
H          0.68220       -0.36430       -0.63210
H          0.39940       -0.28490        1.10000
H         -2.08640       -0.18850        0.66970
H         -1.77660       -0.27130       -1.06180
H         -1.97080       -2.32920        1.96830
H         -1.39970       -3.76940        1.07710
H         -0.23620       -2.54860        1.64440
H         -1.76510       -2.13020       -2.05470
