15
gdb 11390	4.26078	1.4761	1.16897	4.8968	63.79	-0.2408	-0.0278	0.213	983.0399	0.119722	-399.838949	-399.831432	-399.830487	-399.871071	27.521
O         -0.08860        1.44540       -0.08750
C          0.03960        0.03700        0.02950
C         -1.38120       -0.53150        0.04190
N         -2.09130       -0.25770       -1.18560
C         -2.47490       -1.39510       -1.86480
O         -3.02490       -1.44700       -2.94420
C         -2.05520       -2.52380       -0.97320
C         -1.43150       -2.03890        0.10080
H          0.78460        1.82220       -0.22850
H          0.59050       -0.39460       -0.81850
H          0.55620       -0.24690        0.95980
H         -1.90240       -0.09110        0.90640
H         -2.12430        0.66010       -1.59620
H         -2.25390       -3.55590       -1.22460
H         -1.00920       -2.59610        0.92740
