16
gdb 9313	6.20521	0.88158	0.78317	2.0815	69.67	-0.2774	-0.0394	0.2379	1425.1823	0.127698	-383.738228	-383.729098	-383.728153	-383.773038	31.225
C         -0.06060        1.45660       -0.06450
C          0.02670       -0.06890        0.03460
C          0.76880       -0.51020        1.28460
O          0.80050       -1.95370        1.29050
C          1.42140       -2.51390        2.34060
O          1.93580       -1.90540        3.24580
C          1.39360       -3.95890        2.24530
C          1.40090       -5.16000        2.21950
H          0.93460        1.91260       -0.10060
H         -0.59680        1.75710       -0.96880
H         -0.59030        1.88340        0.79400
H         -0.97780       -0.50660        0.04540
H          0.53800       -0.47760       -0.84430
H          1.79720       -0.13340        1.30540
H          0.27520       -0.16310        2.19870
H          1.40790       -6.22260        2.19590
