18
gdb 16485	2.82795	2.5536	1.76447	1.306	71.28	-0.2405	0.08	0.3205	816.0761	0.154254	-347.757943	-347.750719	-347.749774	-347.788803	28.755
C          0.01090        1.47190        0.03720
C         -0.00260       -0.02590       -0.03270
C         -0.95860       -0.88700        0.80730
C         -1.09380       -2.24840        0.12750
C          0.41260       -2.10060       -0.21030
C          0.53840       -1.04340        0.95640
C          0.45730       -0.89180       -1.19110
O         -0.36910       -0.88110       -2.33520
H          0.98790        1.87560       -0.25290
H         -0.74120        1.90400       -0.63220
H         -0.20540        1.82320        1.05170
H         -1.64360       -0.41100        1.49820
H         -1.26490       -3.04350        0.85850
H         -1.78290       -2.34820       -0.71660
H          1.04810       -2.97050       -0.36710
H          1.20980       -0.93320        1.79510
H          1.49870       -0.64690       -1.44820
H          0.04980       -1.41220       -3.01990
