11
gdb 4382	4.15023	2.06758	1.38006	2.7202	53.79	-0.281	-0.0412	0.2398	791.4893	0.075665	-430.799201	-430.793428	-430.792483	-430.829182	21.71
O          0.12280        1.27460       -0.03670
C          0.08150       -0.05570       -0.03060
N         -0.03820       -0.64660       -1.21790
C         -0.07360       -1.97530       -1.14120
N         -0.00340       -2.72060       -0.04030
C          0.11410       -2.00070        1.07390
O          0.18940       -2.68620        2.21230
N          0.16270       -0.66910        1.15220
H          0.21010        1.55860        0.88410
H         -0.17060       -2.51140       -2.08250
H          0.27060       -2.03880        2.92670
