18
gdb 16572	2.97685	2.58299	2.11623	2.1224	65.23	-0.2498	0.077	0.3268	750.2047	0.158073	-384.960439	-384.954366	-384.953422	-384.990312	25.156
C         -0.03870        1.58150       -0.05430
C          1.46560        1.96130       -0.05670
C          2.16730        0.58540        0.02020
O          1.25310       -0.29590       -0.60050
C          0.00600        0.03640        0.03110
C          0.08260       -0.48880        1.47170
C          1.28910        0.15250        2.17610
O          2.44500        0.17280        1.34200
H         -0.58980        2.02660        0.77850
H         -0.52680        1.89350       -0.98010
H          1.74820        2.46010       -0.98620
H          1.75880        2.60830        0.77290
H          3.11730        0.52600       -0.51260
H         -0.79200       -0.45130       -0.53260
H         -0.83580       -0.27210        2.02900
H          0.20840       -1.57520        1.43020
H          1.03790        1.17550        2.49760
H          1.57170       -0.40760        3.07140
