18
gdb 7672	3.70174	1.90214	1.70309	1.1597	67.19	-0.2439	0.0655	0.3094	852.4777	0.152673	-384.906752	-384.899095	-384.898151	-384.938247	29.384
C          0.23180        1.44310       -0.01250
C          0.01870       -0.05680        0.04790
C         -1.42340       -0.47340       -0.20830
O          0.90640       -0.76920       -0.89060
C          1.44810       -1.58950        0.15260
C          2.69460       -0.98670        0.81750
O          1.87060       -0.23070        1.74610
C          0.66550       -0.82330        1.23330
H          1.25120        1.69840        0.28170
H          0.05340        1.80180       -1.03110
H         -0.46180        1.95990        0.65900
H         -1.72550       -0.17820       -1.21770
H         -1.53920       -1.55870       -0.12520
H         -2.09920        0.00290        0.51010
H          1.41640       -2.65750       -0.07010
H          3.33010       -1.70360        1.35270
H          3.30470       -0.34750        0.17110
H          0.01830       -1.22490        2.01580
