14
gdb 10811	5.01613	1.60164	1.25194	3.1012	59.31	-0.2296	-0.0257	0.2039	906.6794	0.107887	-415.890466	-415.88313	-415.882186	-415.922737	26.751
N          0.04340        1.35260        0.39560
C         -0.08740        0.01980        0.09270
N         -1.19540       -0.59710        0.16600
C         -1.23190       -1.98020       -0.26560
C          0.07700       -2.74470       -0.15140
O          0.16500       -3.94680       -0.19370
C          1.31180       -1.87770        0.06770
O          1.12560       -0.50290       -0.26430
H          0.88170        1.79680        0.05800
H         -0.80500        1.88960        0.31350
H         -1.99310       -2.53260        0.29670
H         -1.54490       -2.04510       -1.32070
H          1.60450       -1.96850        1.12380
H          2.13540       -2.24790       -0.54610
