13
gdb 9001	4.63511	0.99986	0.8686	1.4014	57.91	-0.2635	-0.0906	0.1729	1226.8773	0.092949	-435.774192	-435.765827	-435.764882	-435.808644	27.525
O         -0.33720        0.25570        0.02120
C          0.14000        1.33630       -0.19340
C          1.61690        1.56310       -0.50130
N          1.83480        2.68080       -1.39010
C          2.39820        3.84420       -0.98360
O          2.77610        4.10900        0.14230
C          2.53860        4.86550       -2.11660
O          2.17950        4.65160       -3.24550
H         -0.46650        2.27010       -0.17340
H          2.12290        1.80680        0.44160
H          2.04610        0.63710       -0.89560
H          1.58990        2.62290       -2.36890
H          3.00400        5.81420       -1.78710
