19
gdb 9407	5.36838	0.7686	0.72851	4.6006	70.37	-0.2409	0.0321	0.2729	1544.622	0.163992	-402.216428	-402.206547	-402.205602	-402.252363	33.347
C         -0.20830        1.40410        0.04150
N          0.00170       -0.03140       -0.03630
C         -0.01810       -0.81480        1.18630
C         -1.41140       -0.95620        1.81310
C         -1.39130       -1.80830        3.07610
O         -2.71070       -1.84200        3.59360
C          0.23710       -0.61350       -1.24740
O          0.27040       -0.03970       -2.31570
H          0.49690        1.85570        0.74960
H         -0.04290        1.81620       -0.95400
H         -1.22670        1.64820        0.36370
H          0.38190       -1.80750        0.95000
H          0.67190       -0.36000        1.91160
H         -1.81870        0.02750        2.07000
H         -2.09690       -1.40610        1.08650
H         -1.02850       -2.82190        2.83720
H         -0.68620       -1.37670        3.80630
H         -2.71060       -2.38520        4.38710
H          0.40390       -1.70460       -1.14780
