13
gdb 5778	6.42446	1.47629	1.30009	2.2256	60.68	-0.2447	-0.0136	0.2311	897.0049	0.096753	-398.600315	-398.593953	-398.593009	-398.631705	22.845
C          0.36800        1.51940        0.12740
O          1.02710        0.36130       -0.37500
C         -0.30800        0.21510        0.13340
C         -0.45830       -0.54750        1.38530
N          0.08770       -0.33650        2.54210
C         -0.37800       -1.37000        3.33990
C         -1.20200       -2.15770        2.60890
O         -1.26300       -1.64130        1.34680
H          0.75480        1.90470        1.06800
H          0.07990        2.26020       -0.61720
H         -1.05880       -0.00970       -0.62100
H         -0.09040       -1.46490        4.37480
H         -1.78530       -3.04210        2.79760
