18
gdb 17240	4.47092	1.59574	1.54967	1.8678	70.61	-0.2241	0.0793	0.3034	910.3924	0.153914	-347.738541	-347.731422	-347.730478	-347.769906	27.805
C          0.06040        1.48450       -0.21690
C         -0.05860       -0.00090        0.15110
C         -1.47540       -0.49770        0.12860
C         -2.64890       -0.09350        1.03030
C         -3.38990       -1.29210        0.38850
O         -3.57900       -0.87690       -0.99590
C         -2.16880       -1.03870       -1.14020
C         -1.99580       -1.93560        0.03810
H          1.10340        1.81420       -0.19010
H         -0.33020        1.67300       -1.22190
H         -0.50580        2.11010        0.48080
H          0.54340       -0.60170       -0.54380
H          0.37460       -0.16890        1.14640
H         -2.41670       -0.27560        2.08360
H         -3.11580        0.88860        0.90170
H         -4.26770       -1.76250        0.82620
H         -1.73420       -1.03780       -2.13170
H         -1.53820       -2.90380        0.18980
