16
gdb 2322	6.54487	1.38143	1.26001	3.0117	61.99	-0.2392	-0.0224	0.2168	953.4127	0.134679	-325.75097	-325.743159	-325.742215	-325.783639	27.126
C         -0.00820        1.58150       -0.24370
C         -0.02850        0.08900        0.00320
C          1.20690       -0.73690       -0.11810
N          0.57410       -0.53360        1.18470
C          1.27330        0.28080        2.16290
C          2.00610       -0.61670        3.15000
O          2.98790       -0.28660        3.76140
H          0.97090        2.02460       -0.04630
H         -0.25970        1.78650       -1.28940
H         -0.74800        2.09620        0.37930
H         -0.97070       -0.38490       -0.27010
H          1.17300       -1.74850       -0.51360
H          2.13640       -0.20340       -0.31660
H          1.99410        1.00680        1.75920
H          0.53110        0.84710        2.74530
H          1.53810       -1.61860        3.27180
