19
gdb 7367	3.81926	1.05292	0.90154	3.9367	68.64	-0.2584	0.0197	0.2781	1317.8265	0.163848	-402.243536	-402.233777	-402.232832	-402.278541	34.675
C         -0.07700        1.59580       -0.00240
C         -0.02760        0.06610       -0.01140
C          0.73650       -0.49860       -1.21270
C          0.72440       -2.03910       -1.24210
O         -0.58810       -2.53450       -1.27990
C          1.47510       -2.58110       -2.46960
N          2.81470       -2.38060       -2.50730
O          0.86030       -3.14880       -3.35860
H          0.92930        2.02920        0.02970
H         -0.57250        1.98080       -0.90060
H         -0.62750        1.96990        0.86640
H          0.44030       -0.29410        0.91500
H         -1.04180       -0.34510       -0.02370
H          0.28580       -0.13610       -2.14570
H          1.77360       -0.13600       -1.20040
H          1.22670       -2.41370       -0.33420
H         -0.66320       -2.95580       -2.15400
H          3.31400       -1.97040       -1.73800
H          3.33700       -2.74090       -3.28910
