20
gdb 12511	3.29738	1.76181	1.2218	0.4496	84.87	-0.2067	-0.0138	0.1929	1042.0654	0.178888	-311.893215	-311.88532	-311.884376	-311.925542	30.473
C          0.01910        1.58440       -0.12290
C         -0.02790        0.07610       -0.00270
C         -1.21090       -0.55940       -0.02680
C         -1.46250       -2.03960        0.07400
C         -0.48840       -2.91880       -0.72920
C          0.89380       -3.08120       -0.09360
C          1.68280       -1.82960        0.16160
C          1.29210       -0.54680        0.17640
H          0.61810        1.89470       -0.98830
H         -0.97980        2.01380       -0.23130
H          0.48960        2.03580        0.75990
H         -2.10070        0.05710       -0.13730
H         -1.44680       -2.35410        1.12870
H         -2.48340       -2.23690       -0.27240
H         -0.92550       -3.91690       -0.85030
H         -0.38140       -2.49960       -1.73620
H          0.80110       -3.63330        0.85470
H          1.49950       -3.73710       -0.73510
H          2.73860       -2.01050        0.35940
H          2.08310        0.17860        0.36420
