13
gdb 3790	7.8097	2.09956	1.67929	1.5466	55.52	-0.2031	0.022	0.2251	712.6786	0.10476	-336.838171	-336.831746	-336.830802	-336.868507	22.784
C         -0.04730        1.41420       -0.07050
N         -0.04740       -0.01570        0.17610
C         -1.22120       -0.71660        0.07520
N         -2.41930       -0.14040        0.08700
N         -3.24220       -1.23180        0.02540
C         -2.51920       -2.36050       -0.03260
N         -1.23000       -2.08490       -0.00480
H          0.95910        1.80260        0.10130
H         -0.36420        1.68030       -1.08980
H         -0.73140        1.90410        0.62710
H          0.74560       -0.53350       -0.16920
H         -4.23950       -1.10480        0.01920
H         -2.95990       -3.34460       -0.09260
