15
gdb 8627	2.48589	1.76624	1.40795	4.5551	65.56	-0.2721	-0.0077	0.2644	944.5071	0.118279	-358.858987	-358.850089	-358.849145	-358.89214	31.253
C         -0.02000        1.57110       -0.02890
C         -0.01560        0.02220       -0.00680
C          0.71000       -0.52640        1.27220
N          0.02310       -0.07450        2.46970
C         -1.40130       -0.48200       -0.00300
N         -2.48690       -0.87200        0.05650
C          0.68290       -0.49780       -1.19410
N          1.27650       -0.88960       -2.10380
H          1.00840        1.93250       -0.10450
H         -0.58980        1.94630       -0.88050
H         -0.46130        1.92840        0.90170
H          0.79780       -1.61720        1.16880
H          1.72230       -0.11210        1.26150
H         -0.78640       -0.65470        2.66430
H          0.63680       -0.12890        3.27360
