13
gdb 23707	5.89515	1.52518	1.22084	1.7943	62.96	-0.2623	-0.0557	0.2066	911.5635	0.096076	-402.80538	-402.798752	-402.797808	-402.836621	24.076
C          0.01250        1.50170        0.00160
C          0.01050       -0.00150        0.01390
N          0.16630       -0.63500       -1.16090
C          0.16470       -1.96110       -1.15150
C          0.00560       -2.66050        0.04610
F          0.00790       -3.98800        0.02670
N         -0.14840       -2.07540        1.20740
C         -0.14560       -0.73760        1.18860
H          0.95470        1.88080       -0.40650
H         -0.79050        1.88120       -0.63810
H         -0.12070        1.91010        1.00620
H          0.28950       -2.48850       -2.09260
H         -0.27250       -0.23920        2.14590
