12
gdb 23661	3.91927	1.982	1.31683	4.9146	59.24	-0.2432	-0.025	0.2182	830.3334	0.086024	-418.880429	-418.874174	-418.87323	-418.910734	23.778
N         -0.04910        1.35320       -0.09920
C          0.01700       -0.00420       -0.04040
N         -1.15360       -0.65950       -0.02200
C         -1.06810       -1.97550       -0.00330
F         -2.23070       -2.60410        0.01270
N         -0.00400       -2.75330        0.00610
C          1.15830       -2.07920       -0.00840
C          1.24050       -0.70320       -0.03250
H          0.76480        1.90220        0.11550
H         -0.95030        1.77040        0.06790
H          2.06010       -2.68620        0.00040
H          2.19290       -0.18820       -0.04810
