14
gdb 11367	6.38755	1.35045	1.13051	3.1789	59.66	-0.246	0.0015	0.2474	996.2619	0.108058	-415.912368	-415.904974	-415.90403	-415.944312	26.284
C          0.00780        1.38390        0.00720
O         -0.03360       -0.05110        0.00340
C         -1.25300       -0.57760        0.01130
N         -2.37070        0.03980        0.02190
C         -3.39060       -1.01140        0.02670
C         -2.64490       -2.35640        0.01690
O         -3.06680       -3.48380        0.01680
N         -1.30810       -1.96580        0.00760
H          1.06580        1.64400       -0.00120
H         -0.49710        1.78110       -0.87640
H         -0.48170        1.77590        0.90190
H         -4.03270       -0.94540        0.91230
H         -4.04640       -0.94020       -0.84850
H         -0.51710       -2.58880       -0.00040
