14
gdb 7712	3.63337	1.95703	1.32137	2.196	60.71	-0.2677	-0.0097	0.258	868.9787	0.109961	-415.921572	-415.914915	-415.913971	-415.952657	24.888
N         -0.10130        1.33990       -0.11830
C         -0.03580        0.07850        0.01890
C         -1.27200       -0.78290        0.03200
C         -1.04640       -1.98440        0.93680
O          0.11430       -2.72640        0.52460
C          1.25690       -2.05330        0.28050
O          2.31270       -2.61510        0.17450
N          1.13590       -0.66940        0.15760
H          0.82510        1.77250       -0.12830
H         -2.12100       -0.18230        0.36120
H         -1.47600       -1.12920       -0.98840
H         -0.91700       -1.67390        1.98100
H         -1.87290       -2.69450        0.88630
H          2.02520       -0.20650        0.03190
