12
gdb 5047	3.70282	2.39654	1.67564	1.0626	64.52	-0.2561	-0.089	0.1672	732.5994	0.086283	-373.704038	-373.69793	-373.696986	-373.73431	22.483
N         -0.16610        1.03800        0.74040
C         -0.02700       -0.00360        0.02940
C         -1.23100       -0.71930       -0.49830
N         -1.46650       -1.95480       -0.26800
C         -0.57150       -2.76000        0.39900
N          0.71530       -2.79360        0.29240
C          1.41000       -1.80600       -0.37130
N          1.16490       -0.54460       -0.45960
H          0.75210        1.40360        1.00820
H         -1.93320       -0.16060       -1.11870
H         -1.04300       -3.53960        0.99620
H          2.34430       -2.15390       -0.81180
