11
gdb 9041	6.02429	0.85932	0.79029	3.7296	65.98	-0.2918	-0.079	0.2129	1312.9154	0.070124	-397.380117	-397.37224	-397.371296	-397.413216	26.61
O         -0.00300        1.50690        0.05700
C          0.01720        0.11160        0.06650
C          0.70050       -0.42940       -1.20490
O          1.14170        0.33070       -2.02400
C          0.70920       -0.44260        1.23420
C          1.28800       -0.91050        2.18520
C          1.93980       -1.44000        3.26220
N          2.49400       -1.89540        4.17560
H          0.51880        1.76910       -0.72010
H         -1.01310       -0.28680        0.06180
H          0.75620       -1.52860       -1.30590
