12
gdb 18430	4.30701	1.54564	1.38419	3.7322	55.55	-0.2646	-0.0483	0.2163	863.2066	0.08267	-418.471563	-418.464955	-418.464011	-418.502884	23.703
O         -0.06810        0.04660       -0.27590
C         -0.02620        1.18470        0.11710
C          1.22520        2.00110        0.06840
C          1.25010        3.48020       -0.13880
O          0.04580        4.08790        0.39650
C          0.43410        3.71970        1.68810
O         -0.08220        4.02010        2.70990
C          1.65370        2.96790        1.20900
H         -0.91710        1.69130        0.53670
H          2.07050        1.46510       -0.35500
H          1.78980        4.02550       -0.89950
H          2.60730        2.87370        1.70630
