13
gdb 12167	4.09057	1.48226	1.17128	4.0284	61.51	-0.2691	0.0015	0.2706	958.0089	0.095362	-394.772401	-394.764654	-394.76371	-394.804811	27.348
O          0.31580        1.10560        0.41310
C          0.18030       -0.21990        0.01520
C         -1.29600       -0.75510       -0.20060
N         -0.85110       -1.19470       -1.53380
C          0.34410       -0.48940       -1.48050
N          1.22710       -0.06290       -2.27420
C         -1.78450       -1.81560        0.67490
N         -2.17080       -2.64890        1.37600
H          0.75640        1.57220       -0.30870
H          0.75540       -0.89440        0.65840
H         -2.00200        0.08150       -0.21000
H         -1.44230       -1.35140       -2.33830
H          1.03730       -0.29340       -3.24990
