17
gdb 1664	4.74331	1.9274	1.41321	3.6703	62.8	-0.2259	0.066	0.2918	880.8701	0.147439	-343.068226	-343.059148	-343.058203	-343.101984	30.213
C         -0.05340        1.46400       -0.01710
N          0.08900        0.01830        0.03590
C          0.68620       -0.61940       -1.03940
O          1.20990        0.00820       -1.94840
N          0.68380       -2.00030       -0.98420
C          1.13590       -2.74220       -2.14610
C          0.14990       -2.75680        0.12830
H          0.89600        1.90050       -0.32780
H         -0.82180        1.79430       -0.72900
H         -0.31040        1.83260        0.97940
H         -0.64020       -0.47500        0.52380
H          1.93280       -3.44520       -1.87260
H          0.31600       -3.31540       -2.60090
H          1.52130       -2.02810       -2.87200
H         -0.93670       -2.92750        0.05890
H          0.63260       -3.73820        0.15730
H          0.36810       -2.25790        1.07640
