19
gdb 11894	4.46251	1.46699	1.23196	1.6859	80.21	-0.214	0.0218	0.2359	1039.0212	0.166457	-327.924364	-327.916562	-327.915618	-327.956505	29.887
C         -0.04550        1.50310        0.03520
C         -0.02300        0.00870        0.00230
C         -0.31390       -0.78660       -1.03180
C         -0.14040       -2.22370       -0.70390
C         -0.78920       -3.31130       -1.47780
N          0.66690       -3.10730       -1.58120
C          0.11030       -2.27370        0.80820
C          0.38990       -0.80340        1.21540
H          0.94150        1.90580        0.29800
H         -0.34040        1.92770       -0.92830
H         -0.74210        1.87280        0.79870
H         -0.61350       -0.44770       -2.01920
H         -1.08440       -4.22870       -0.97340
H         -1.42190       -3.03980       -2.32030
H          0.88680       -2.62120       -2.44860
H         -0.78190       -2.64500        1.32230
H          0.93380       -2.95120        1.04280
H          1.44950       -0.62810        1.44810
H         -0.16720       -0.50820        2.11300
