15
gdb 13586	3.70439	1.37954	1.23236	2.2101	64.17	-0.247	-0.0966	0.1505	1011.7103	0.117028	-399.788979	-399.780802	-399.779858	-399.82215	28.615
C          0.42270        1.75150       -0.26000
C          0.02390        0.32710        0.03060
N          1.06680       -0.68410       -0.00460
C          0.41710       -0.40790        1.29460
C          1.24770        0.23080        2.34690
O          2.22330        0.92630        2.16760
C          0.79980       -0.00270        3.79780
O         -0.14690       -0.67490        4.11370
H          1.40200        1.97290        0.16550
H          0.47140        1.90630       -1.34310
H         -0.31410        2.45100        0.14820
H         -0.96030        0.04070       -0.34070
H          0.71360       -1.56530       -0.36900
H         -0.30630       -1.11900        1.68090
H          1.45440        0.51750        4.52850
