15
gdb 9437	2.70648	1.77005	1.72476	4.4071	66.14	-0.2638	-0.0478	0.216	872.1758	0.117447	-362.688278	-362.680217	-362.679273	-362.721135	28.682
C         -0.28790        1.58960        0.13530
C          0.01110        0.09500       -0.02220
C          0.88270       -0.36080       -1.25320
C          1.89740       -1.07580       -0.31300
C          1.19290       -0.42980        0.88010
O          1.45620       -0.24940        2.02690
C         -1.18500       -0.71850        0.14470
N         -2.12520       -1.37980        0.27610
H          0.63170        2.16910        0.01550
H         -1.01180        1.92220       -0.61340
H         -0.69440        1.79150        1.12920
H          0.37060       -0.99640       -1.97390
H          1.30990        0.50040       -1.76990
H          1.78130       -2.16440       -0.29770
H          2.95890       -0.84230       -0.42080
