6
gdb 8	127.83497	24.85872	23.97872	1.5258	16.97	-0.2653	0.0784	0.3437	83.794	0.051208	-115.679136	-115.675816	-115.674872	-115.701876	8.751
C         -0.00830        1.39050       -0.00560
O         -0.00800       -0.02500        0.02030
H          1.00660        1.81560        0.00350
H         -0.54660        1.79920       -0.87390
H         -0.52290        1.72560        0.89910
H          0.44140       -0.33350       -0.77150
