13
gdb 3758	4.05076	3.42009	1.87653	2.7379	55.69	-0.2145	0.0402	0.2546	645.1519	0.103009	-340.65257	-340.645874	-340.64493	-340.6836	23.555
C         -0.01720        1.42210       -0.02930
N         -0.01200       -0.02270        0.01690
N         -0.04720       -0.75570       -1.13040
C          0.02250       -2.01580       -0.72130
C          0.11090       -2.12680        0.68360
C          0.08840       -0.81280        1.10920
O          0.14550       -0.22570        2.32750
H          0.99920        1.82500       -0.10050
H         -0.58440        1.72950       -0.90820
H         -0.49020        1.81270        0.87340
H          0.00250       -2.81370       -1.44960
H          0.17450       -3.01440        1.29160
H          0.15790       -0.91430        2.99900
