20
gdb 18879	3.19349	2.58695	2.37786	0.157	76.49	-0.2695	0.0855	0.3551	741.2699	0.182612	-311.887112	-311.881523	-311.880579	-311.916266	25.091
C         -0.02600        1.56360        0.06500
C          1.51710        1.49740       -0.02950
C          2.14520        1.13180        1.34200
C          1.86840       -0.38580        1.44630
C          0.33860       -0.59910        1.37680
C         -0.02730        0.01750        0.00020
C          1.37570        0.08500       -0.71320
C          2.30100       -0.86540        0.04380
H         -0.46480        2.03930        0.94960
H         -0.46870        2.00760       -0.83200
H          2.03860        2.30300       -0.54980
H          3.22460        1.31990        1.33990
H          1.71160        1.70820        2.16630
H          2.35380       -0.87530        2.29350
H          0.10490       -1.66940        1.40000
H         -0.20210       -0.12550        2.20310
H         -0.86470       -0.47880       -0.49380
H          1.37480        0.06410       -1.80230
H          3.36280       -0.69150       -0.16150
H          2.07800       -1.92260       -0.13680
