12
gdb 21517	3.79983	1.90141	1.2683	3.3907	66.09	-0.2135	0.0003	0.2138	872.6626	0.083714	-377.489699	-377.48263	-377.481686	-377.520749	26.581
N          0.01420        1.35180       -0.15830
C         -0.04870       -0.00250       -0.06200
C         -1.12590       -0.86860       -0.01900
C         -0.48520       -2.14270        0.01040
N          0.81760       -2.07130       -0.00680
O          1.09910       -0.67710       -0.05440
C         -2.49030       -0.52610       -0.00170
C         -3.65260       -0.20580        0.01890
H          0.87320        1.78430        0.14470
H         -0.82890        1.84280        0.09660
H         -0.95790       -3.11430        0.04730
H         -4.67930        0.06350        0.02780
