20
gdb 11955	3.30705	1.59314	1.33359	1.031	75.47	-0.2383	0.0814	0.3198	1023.4306	0.176275	-348.981054	-348.972513	-348.971569	-349.013825	32.547
C          0.16220        1.46630        0.23070
C         -0.13940       -0.00640       -0.07980
C          0.56270       -0.51110       -1.30960
C          2.01690       -0.95060       -1.30610
C          0.94990       -1.92450       -1.72810
O          0.70350       -3.09930       -1.03590
C          0.51550       -1.66500       -3.17290
C          0.16170       -0.19530       -2.76150
H          1.23270        1.61990        0.40200
H         -0.13650        2.11550       -0.59940
H         -0.37510        1.79980        1.12400
H          0.14620       -0.63180        0.77490
H         -1.22270       -0.13790       -0.20430
H          2.73310       -0.54480       -2.01910
H          2.42090       -1.14200       -0.31600
H          1.48110       -3.66360       -1.10650
H          1.27390       -1.80260       -3.95170
H         -0.37470       -2.24000       -3.43790
H         -0.90360        0.02390       -2.87280
H          0.73580        0.59560       -3.25500
