18
gdb 10311	2.45499	1.76642	1.09148	0.6394	70.56	-0.2623	0.0387	0.301	1098.9195	0.149473	-384.88907	-384.87909	-384.878146	-384.923753	35.185
C          0.24000        0.59910       -1.27390
O         -0.15590        0.23510        0.03270
C         -1.38540       -0.46750        0.08960
C         -1.29280       -1.78910       -0.54340
C         -1.17840       -2.86060       -1.07540
C         -1.77600       -0.57270        1.57720
C         -1.82600        0.79610        2.25050
O         -3.04480       -1.21190        1.58410
H          1.17810        1.15030       -1.17790
H          0.40070       -0.28120       -1.90970
H         -0.50890        1.24720       -1.75490
H         -2.17630        0.11130       -0.41830
H         -1.09220       -3.81210       -1.53920
H         -1.01850       -1.20080        2.07000
H         -0.85380        1.28990        2.19810
H         -2.57420        1.43120        1.76470
H         -2.10350        0.68810        3.30510
H         -3.30410       -1.34450        2.50070
