17
gdb 14134	4.29344	1.62929	1.43245	1.8924	68.55	-0.2331	0.0251	0.2582	918.5626	0.142763	-363.865031	-363.85764	-363.856696	-363.896828	27.707
C          0.01410        1.56060       -0.16840
C          0.00660        0.05810       -0.00020
C          1.28440       -0.76010       -0.13350
C          0.62090       -0.59980        1.19720
C          1.21050        0.09620        2.43010
N          0.79250       -0.74740        3.56500
C          0.12330       -1.69540        3.05640
O         -0.06420       -1.75350        1.71690
H          0.93470        2.00510        0.22420
H         -0.05570        1.83390       -1.22650
H         -0.82870        2.02660        0.35360
H         -0.88610       -0.44150       -0.36740
H          1.22010       -1.73030       -0.61350
H          2.22000       -0.23130       -0.29350
H          2.30410        0.15940        2.39700
H          0.82850        1.11460        2.56520
H         -0.33950       -2.50640        3.60760
