17
gdb 17560	3.23203	2.13077	1.63081	1.4944	68.2	-0.2407	0.0683	0.3091	842.1269	0.14156	-363.797154	-363.789774	-363.788829	-363.82843	28.507
C         -0.11470        1.53190        0.03410
C          0.12230        0.05830       -0.00670
O         -0.76660       -0.80680        0.72610
C          0.64330       -0.91340        0.97490
C          1.22950       -1.81480       -0.12500
C          0.66850       -0.79880       -1.14910
C          0.12960       -0.95890       -2.51200
N          1.45120       -0.32580       -2.28570
H          0.77050        2.08310       -0.30040
H         -0.95530        1.81340       -0.61090
H         -0.35330        1.84630        1.05320
H          0.98020       -0.77020        1.99540
H          2.32200       -1.83380       -0.14340
H          0.83170       -2.83180       -0.15370
H          0.17090       -1.92730       -3.00290
H         -0.70760       -0.33360       -2.81270
H          1.37100        0.68500       -2.37780
