16
gdb 21005	3.79687	1.75932	1.21754	1.8522	69.84	-0.1776	0.0398	0.2174	971.8545	0.132363	-376.11412	-376.105703	-376.104759	-376.147079	30.193
C          0.02550        1.38750        0.08450
N         -0.06170       -0.04830       -0.00340
C         -0.08550       -0.81530       -1.12940
C         -0.00690       -2.13160       -0.72390
N         -0.07800       -3.33500       -1.45870
C          0.07280       -2.05420        0.68910
N          0.21790       -3.14990        1.54920
N          0.05050       -0.79730        1.11980
H          1.06490        1.73250        0.15370
H         -0.43600        1.83180       -0.80070
H         -0.51220        1.72150        0.97440
H         -0.16200       -0.37560       -2.11180
H         -0.02170       -3.17600       -2.45710
H          0.67450       -3.96450       -1.19680
H         -0.45560       -3.87960        1.34190
H          0.12190       -2.86400        2.51640
