15
gdb 2355	5.55519	2.10978	1.59691	3.6859	58.21	-0.2335	0.056	0.2894	762.123	0.126756	-341.859618	-341.852585	-341.851641	-341.890833	25.235
N         -0.09050        1.34000        0.06250
C         -0.00100       -0.04660        0.11290
O          1.05400       -0.65070        0.04480
N         -1.21480       -0.68250        0.21650
C         -2.52990       -0.25530       -0.29320
C         -2.88970       -1.75170       -0.50430
C         -1.42060       -2.09570       -0.12670
H          0.79720        1.79090        0.22520
H         -0.86780        1.77530        0.53620
H         -3.14370        0.28880        0.43420
H         -2.46680        0.33660       -1.21420
H         -3.63030       -2.13000        0.20130
H         -3.19110       -2.02130       -1.51650
H         -0.78890       -2.42500       -0.95810
H         -1.28240       -2.78380        0.71220
