15
gdb 17506	4.87363	1.82397	1.65207	1.7727	71.47	-0.247	0.0164	0.2634	803.7104	0.119536	-325.432776	-325.426394	-325.42545	-325.462966	25.635
C          0.02160       -1.20390       -0.02480
C         -0.00060       -0.00130       -0.02980
C         -0.02320        1.42970       -0.02220
C         -1.10890        2.22450        0.74760
C         -0.91190        3.26070       -0.33920
C          0.53050        3.28560       -0.72360
C          1.27530        2.26560        0.11230
N         -0.38580        2.25640       -1.32950
H          0.04000       -2.26570       -0.02450
H         -2.08180        1.73700        0.65820
H         -0.90840        2.48050        1.79280
H         -1.60460        4.03290       -0.65230
H          0.95040        4.07700       -1.33300
H          1.61310        2.52400        1.12090
H          2.09000        1.80890       -0.45340
