14
gdb 5299	5.06421	1.68832	1.27576	3.1167	65.31	-0.2205	-0.0104	0.21	892.5699	0.109605	-378.794537	-378.787736	-378.786792	-378.825627	25.952
N         -0.04000        1.36830       -0.00580
C          0.05570        0.00440       -0.12960
O          1.09440       -0.58910       -0.30570
N         -1.18510       -0.67020       -0.07000
C         -2.46840       -0.13820       -0.11020
C         -3.35680       -1.17140       -0.00790
C         -2.60060       -2.38160        0.10240
C         -1.27740       -2.04680        0.05550
H          0.85190        1.82820        0.08780
H         -0.79650        1.76310        0.52870
H         -2.63120        0.91380       -0.27310
H         -4.43220       -1.07970       -0.02200
H         -2.99430       -3.38120        0.20380
H         -0.37450       -2.63040        0.10340
