15
gdb 16640	3.17978	2.34175	1.59924	0.9794	60.09	-0.2415	-0.041	0.2005	792.1629	0.119374	-399.78676	-399.77995	-399.779006	-399.817771	26.088
O         -0.10310        1.49250       -0.06890
C         -0.04460        0.09030       -0.01130
C         -1.38160       -0.61330       -0.05490
C         -2.10490       -0.60370       -1.34890
N         -1.31910       -1.78960       -0.97610
C          0.01250       -1.80630       -1.60170
C          0.68080       -0.48380       -1.24080
O          1.56000        0.10440       -1.81660
H          0.67720        1.76670       -0.57410
H          0.50980       -0.24520        0.88490
H         -1.92100       -0.77370        0.87230
H         -3.17880       -0.75850       -1.36540
H         -1.72970        0.04890       -2.13590
H          0.59630       -2.63950       -1.18920
H         -0.04400       -1.94270       -2.68510
