14
gdb 5711	4.95607	2.02513	1.46413	1.4358	63.27	-0.217	0.0138	0.2308	800.1599	0.109712	-382.550085	-382.544008	-382.543064	-382.580479	22.819
C         -0.06940        1.47590        0.10440
O          1.23380        1.92520       -0.29470
C          2.12680        0.83260       -0.61480
C          1.29980       -0.39170       -0.39290
C          0.07410       -0.00180        0.00950
O         -0.75080       -1.04300        0.23690
C          0.00180       -2.15880       -0.03950
C          1.26510       -1.82320       -0.42950
H         -0.29260        1.83570        1.11990
H         -0.83030        1.89230       -0.57240
H          2.47200        0.95000       -1.65160
H          3.00870        0.89360        0.03830
H         -0.50590       -3.10010        0.09020
H          2.04660       -2.51550       -0.70080
