13
gdb 5194	6.36093	1.16224	1.07744	2.6706	59.8	-0.2427	-0.0258	0.217	1037.8001	0.095672	-398.636582	-398.6296	-398.628656	-398.669203	24.05
O         -0.41440        0.66080        0.87080
C          0.09110        1.01750       -0.16010
C          1.41380        1.77270       -0.24500
C          1.35270        2.90140       -1.22180
C          1.36630        4.24040       -1.00950
O          1.26530        4.86670       -2.22120
C          1.18730        3.85590       -3.11250
N          1.23280        2.67370       -2.59340
H         -0.37720        0.80930       -1.14620
H          1.68710        2.11160        0.75670
H          2.17030        1.04970       -0.58090
H          1.44180        4.87420       -0.14320
H          1.09960        4.12960       -4.15220
