14
gdb 10589	3.11773	1.76625	1.31716	3.0283	65.87	-0.2624	-0.0503	0.212	931.7524	0.102982	-382.490509	-382.482192	-382.481247	-382.523055	29.727
C          0.14250        1.53450        0.02650
C          0.04210        0.03680        0.11670
O          1.20160       -0.72790       -0.15030
C          0.69180       -0.79940        1.18700
C          1.52580       -0.13020        2.25680
O          2.37210        0.69500        2.03920
C          0.08150       -2.04210        1.58850
C         -0.41110       -3.06960        1.97110
H          1.06770        1.89550        0.47550
H          0.12520        1.83110       -1.02770
H         -0.71530        2.00280        0.51990
H         -0.87440       -0.40200       -0.28300
H          1.27610       -0.46780        3.28450
H         -0.84880       -3.98250        2.29330
