15
gdb 9231	4.5445	1.22036	1.0732	2.9325	63.92	-0.2521	0.0244	0.2765	1089.3741	0.118474	-395.999086	-395.990369	-395.989425	-396.03272	30.218
C          0.22260        1.17210       -0.40180
O         -0.08400       -0.10710        0.15660
C         -1.38740       -0.42450        0.25070
N         -1.53210       -1.71890        0.69310
N         -2.29330        0.41040       -0.09340
C         -3.67690       -0.02060       -0.06700
C         -4.17030       -0.40630        1.27000
N         -4.49620       -0.74490        2.32700
H          1.31170        1.22660       -0.41920
H         -0.18380        1.26170       -1.41230
H         -0.19310        1.97290        0.21440
H         -0.68750       -2.12490        1.06760
H         -2.35710       -1.91620        1.24130
H         -4.30540        0.79930       -0.42920
H         -3.85990       -0.87770       -0.73470
