14
gdb 7029	5.6282	0.91485	0.83597	1.8656	64.3	-0.26	-0.0411	0.2188	1301.5815	0.105948	-415.902127	-415.893755	-415.892811	-415.936445	28.174
N          0.92490        0.40090       -0.71020
C         -0.10270        0.52360        0.02360
N         -1.29090       -0.09680       -0.34340
C         -2.45120       -0.02370        0.39760
O         -2.53670        0.60460        1.43290
C         -3.63930       -0.77690       -0.18350
C         -4.86730        0.12540       -0.26270
O         -5.64580        0.10330       -1.17710
H          1.71030        0.91060       -0.30990
H         -0.19950        1.07780        0.95870
H         -1.26590       -0.62680       -1.20300
H         -3.45700       -1.22940       -1.16060
H         -3.88190       -1.57630        0.52980
H         -4.98500        0.80130        0.60790
