9
gdb 23877	3.56581	1.5146	1.30895	2.0609	38.13	-0.2807	-0.1283	0.1524	856.9932	0.042392	-564.836135	-564.828582	-564.827637	-564.869553	24.434
F          0.71160        0.28170        0.15560
C         -0.06140        1.34110        0.01030
F          0.69500        2.40100       -0.31350
F         -0.92120        1.12790       -0.99750
C         -0.86270        1.66980        1.29180
O         -0.77030        1.01680        2.28870
C         -1.78720        2.90750        1.17270
O         -2.45860        3.26130        2.09940
H         -1.78260        3.42770        0.19450
