15
gdb 4468	3.56682	1.79128	1.20908	1.5972	63.63	-0.1913	0.0569	0.2482	955.3185	0.119863	-396.025559	-396.017437	-396.016493	-396.05784	29.708
C          0.10900        1.47550        0.07890
C          0.08000       -0.01340       -0.01550
C         -0.06180       -0.78800       -1.13540
N         -0.22240       -0.54630       -2.51590
N         -0.02280       -2.11070       -0.67200
C          0.13660       -2.04100        0.66700
O          0.20990       -3.16730        1.39980
N          0.20420       -0.81640        1.11480
H          1.05120        1.82960        0.51230
H         -0.00230        1.92900       -0.91050
H         -0.69800        1.85050        0.71860
H         -1.06560       -0.02300       -2.72310
H          0.56190       -0.04370       -2.91610
H         -0.09970       -2.93590       -1.24160
H          0.32200       -2.87910        2.31460
