10
gdb 23817	3.37132	2.29917	1.36695	2.3205	52.92	-0.267	-0.081	0.186	773.906	0.059838	-458.537149	-458.531185	-458.530241	-458.567477	21.793
F         -0.02470        0.03020        0.00430
C         -0.02410        1.35370        0.01110
C         -1.18720        2.03450        0.02970
O         -1.27400        3.37700        0.03770
N         -0.13020        4.15350        0.02680
C          0.99740        3.53250        0.00900
C          1.23700        2.07100       -0.00150
O          2.34970        1.57870       -0.01870
H         -2.16330        1.56460        0.03990
H          1.86880        4.18190        0.00090
