16
gdb 20193	3.45167	2.67742	2.03075	2.5501	63.02	-0.2286	0.08	0.3086	710.1904	0.132922	-383.689427	-383.683592	-383.682648	-383.719096	23.72
C          0.00900        1.54010        0.00300
O          1.25760        2.20550       -0.07530
C          2.21550        1.62450       -0.93510
C          2.39650        0.13940       -0.64440
O          2.42880       -0.09990        0.79470
C          1.18470       -0.79100        0.70580
C          0.09190        0.02470        0.05450
C          1.11330       -0.69350       -0.79570
H         -0.47520        1.93870        0.90090
H         -0.62160        1.81140       -0.86280
H          1.94850        1.74760       -2.00010
H          3.14270        2.17550       -0.74990
H          3.28390       -0.27370       -1.13290
H          1.01410       -1.61080        1.39400
H         -0.87960       -0.46440        0.08540
H          0.90070       -1.42400       -1.56430
