13
gdb 23869	2.94785	1.73659	1.38671	1.8383	52.2	-0.2788	0.0373	0.3162	884.9126	0.089897	-492.945028	-492.936895	-492.935951	-492.977842	29.079
C         -0.03000        1.56140        0.03180
C         -0.03710        0.02080       -0.01510
C         -1.39100       -0.52300        0.01690
C         -2.51610       -0.94010        0.05470
C          0.71870       -0.48720       -1.24850
F          1.98890       -0.04980       -1.22740
F          0.75380       -1.82320       -1.28760
F          0.16190       -0.05680       -2.38690
H          0.99600        1.93560        0.02450
H         -0.56250        1.96950       -0.82990
H         -0.52660        1.90460        0.94100
H          0.52530       -0.36830        0.84290
H         -3.50690       -1.32150        0.08400
