18
gdb 13396	5.31667	1.18435	1.07864	0.808	70.59	-0.2512	0.0106	0.2618	1151.0107	0.153333	-384.942053	-384.933911	-384.932967	-384.975371	29.197
C          0.22730        1.46460        0.02720
C          0.08530       -0.04710       -0.00360
O          0.70290       -0.57780        1.16290
C          0.58370       -1.96960        1.28640
O          1.33620       -2.67410        0.30720
C          2.47480       -3.28320        0.90930
C          2.26740       -3.11490        2.38740
C          1.17670       -2.39140        2.60450
H          1.28300        1.75020        0.04310
H         -0.23860        1.90850       -0.85780
H         -0.25230        1.87970        0.91840
H         -0.97820       -0.33810       -0.02600
H          0.55920       -0.46790       -0.90020
H         -0.47320       -2.25210        1.14430
H          2.51360       -4.33700        0.60040
H          3.40670       -2.80620        0.56710
H          2.93980       -3.52500        3.13020
H          0.76590       -2.07410        3.55280
