19
gdb 10533	2.80733	1.39729	1.09033	2.1791	67.2	-0.2482	0.0634	0.3116	1128.2916	0.165155	-402.159601	-402.150527	-402.149583	-402.19363	32.906
O         -1.58700        1.70030        0.66950
C         -1.00950        0.42350        0.43520
C         -2.08060       -0.67520        0.35440
C         -1.55720       -2.05050       -0.02350
C         -0.58060       -2.71440        0.93600
O          0.71460       -2.14690        0.83870
C         -2.38800       -2.91800       -0.89780
N         -1.15990       -2.29590       -1.43010
H         -1.92600        1.70870        1.57010
H         -0.48940        0.50700       -0.52550
H         -0.24970        0.17140        1.18420
H         -2.59580       -0.74260        1.32360
H         -2.83540       -0.35570       -0.37470
H         -0.90430       -2.57850        1.97360
H         -0.55070       -3.79500        0.73320
H          0.94750       -2.20540       -0.09670
H         -2.34490       -3.99900       -0.79590
H         -3.34820       -2.53460       -1.23290
H         -1.40620       -1.49380       -2.00550
