13
gdb 9997	2.53338	1.47654	0.98209	3.3813	60.25	-0.2745	-0.0668	0.2077	1096.6227	0.09212	-398.621487	-398.613016	-398.612072	-398.655973	27.68
O         -0.08850        0.04170        0.35500
C         -0.02780        1.18430       -0.00700
C          1.26070        1.96750       -0.16030
C          1.28050        2.85150       -1.42080
C          2.29650        4.01050       -1.30540
O          2.71750        4.39970       -0.25380
C          1.51400        2.10410       -2.65610
N          1.72870        1.53350       -3.63750
H         -0.95070        1.76950       -0.23580
H          1.35190        2.64530        0.69880
H          2.10960        1.28140       -0.13560
H          0.30310        3.35240       -1.52670
H          2.58150        4.47290       -2.27130
