20
gdb 11997	3.20863	1.97799	1.74869	0.1954	79.37	-0.2254	0.0236	0.249	882.1765	0.17765	-311.873696	-311.866065	-311.865121	-311.904778	31.014
C         -0.11890        1.59250        0.02270
C          0.00290        0.05790        0.00800
C         -1.40660       -0.56760       -0.02650
C          0.82660       -0.44750       -1.17000
C          1.80400       -1.27900       -0.80310
C          1.88420       -1.41070        0.68050
C          2.23290       -0.12390        1.40590
C          0.78800       -0.50090        1.20910
H          0.86200        2.07380        0.06320
H         -0.63260        1.95230       -0.87590
H         -0.69640        1.92760        0.89120
H         -1.94640       -0.27430       -0.93340
H         -1.34860       -1.65990       -0.00660
H         -1.99790       -0.23850        0.83630
H          0.61070       -0.13860       -2.18790
H          2.49610       -1.77280       -1.47650
H          2.13480       -2.36100        1.13900
H          2.62220       -0.20630        2.41590
H          2.66340        0.68150        0.82020
H          0.22060       -0.77700        2.09170
