13
gdb 17018	5.54321	1.46057	1.4049	2.8933	60.75	-0.2565	-0.021	0.2355	865.5145	0.094817	-398.551043	-398.544442	-398.543498	-398.582129	24.158
O          0.09140        0.06000       -0.51170
C          0.05450        1.21580       -0.15970
N          1.08760        1.87950        0.46600
C          2.54770        1.61220        0.19190
C          2.44900        2.61210       -1.01320
C          1.58880        3.26680        0.11850
C          2.77620        2.88720        1.05380
O          3.48410        3.33770        1.88750
H         -0.85570        1.84470       -0.21720
H          2.97220        0.61440        0.23360
H          3.35850        3.12720       -1.33190
H          1.86550        2.22540       -1.84920
H          0.93820        4.13720        0.08930
