15
gdb 20769	3.33737	1.75811	1.16824	4.218	62.86	-0.248	0.0011	0.2491	977.354	0.118323	-399.792645	-399.78472	-399.783775	-399.825494	27.859
C         -0.02570        1.50320        0.00170
C         -0.01050        0.00870        0.03170
N         -0.03160       -0.67680       -1.08780
O         -0.00950       -2.01670       -0.71690
C          0.02430       -2.09380        0.62240
C          0.02620       -0.85390        1.17210
C          0.05880       -0.48680        2.61890
O          0.08630       -1.68410        3.37720
H          0.86580        1.91650        0.48630
H         -0.05560        1.85620       -1.03060
H         -0.89880        1.89950        0.53170
H          0.04420       -3.08310        1.04900
H          0.94310        0.13940        2.82700
H         -0.82360        0.12620        2.87000
H          0.10910       -1.45010        4.30930
