15
gdb 10717	2.6557	2.16361	1.36857	2.6404	57.48	-0.2455	0.0081	0.2535	886.949	0.118488	-436.940248	-436.932282	-436.931338	-436.972746	29.34
N          0.18450        1.15180       -0.51190
C          0.09540       -0.04240        0.13220
O          0.96620       -0.49630        0.84820
C         -1.21010       -0.80030       -0.12250
C         -2.04600       -0.47100       -1.34060
O         -2.54500        0.86540       -1.29730
C         -1.34640       -2.10700        0.53190
O         -1.99960       -0.95970        1.07720
H          0.98270        1.73050       -0.30390
H         -0.64370        1.56260       -0.92140
H         -1.44660       -0.54170       -2.25310
H         -2.87180       -1.19030       -1.41270
H         -3.06940        0.93860       -0.49050
H         -2.00470       -2.85540        0.09340
H         -0.50020       -2.47000        1.10790
