12
gdb 5035	3.40167	2.30883	1.37534	4.5514	59.66	-0.2328	-0.0369	0.1959	806.1349	0.084937	-418.510779	-418.504439	-418.503495	-418.541193	24.083
O         -0.04500        1.35290        0.01050
C          0.02710        0.00240        0.00290
C          1.18500       -0.69260       -0.00800
O          1.24940       -2.05190       -0.01570
C          0.09240       -2.73740       -0.01230
C         -1.11900       -2.15380       -0.00160
C         -1.27600       -0.70140        0.00710
O         -2.34620       -0.11650        0.01690
H          0.84210        1.73050        0.00710
H          2.17350       -0.24870       -0.01170
H          0.26970       -3.80560       -0.01910
H         -2.01380       -2.76360        0.00060
