16
gdb 20261	4.03793	2.77969	2.43617	1.8822	65.13	-0.2365	0.0919	0.3284	645.3265	0.134664	-346.576507	-346.571639	-346.570695	-346.605114	21.669
C         -0.05390        1.62860        0.01210
C          1.44970        1.86670       -0.00140
C          2.12590        0.73650        0.74600
C          2.11100        0.74460       -0.77400
C          1.08670       -0.39210       -0.98290
O          1.46930       -1.41680       -0.01920
C          1.10570       -0.40260        0.96270
C         -0.01260        0.11310        0.00350
H         -0.53750        2.03450        0.90780
H         -0.55490        2.04410       -0.86960
H          1.87370        2.86430       -0.00010
H          3.02260        0.85510        1.33750
H          2.99600        0.86980       -1.38160
H          0.89970       -0.77410       -1.98540
H          0.93830       -0.79530        1.96450
H         -0.93710       -0.45880        0.00950
