13
gdb 4728	6.60352	1.35965	1.12913	3.0813	73.49	-0.1892	-0.0114	0.1777	984.9241	0.096743	-357.648666	-357.641421	-357.640476	-357.67978	27.505
N         -0.00440        1.40520        0.15620
C         -0.03390        0.01440        0.05290
C         -1.12730       -0.83010        0.02190
N         -0.59220       -2.09910       -0.01230
C          0.76660       -1.97930        0.00350
N          1.12760       -0.70030        0.03970
C          1.62100       -3.10270       -0.02060
C          2.32450       -4.07990       -0.04330
H          0.90560        1.76380       -0.10280
H         -0.73190        1.87010       -0.36970
H         -2.18900       -0.65310        0.03020
H         -1.10260       -2.96530       -0.04440
H          2.95790       -4.93190       -0.06190
