18
gdb 11759	4.9857	1.26858	1.17764	0.8864	68.	-0.2486	0.0713	0.3199	1047.698	0.153519	-384.901043	-384.892926	-384.891982	-384.933496	30.662
O          0.20490        1.33800        0.15190
C          0.06610       -0.05060       -0.12600
C         -1.36280       -0.50070       -0.11330
C         -2.07700       -0.92550        1.14450
C         -1.93540       -1.91940        0.02350
C         -2.95220       -1.62760       -1.07190
O         -4.28940       -1.82450       -0.66440
C         -2.40810       -0.15900       -1.18430
H         -0.24470        1.50520        0.98710
H          0.50620       -0.19040       -1.12020
H          0.65230       -0.66280        0.57960
H         -1.44000       -1.12180        2.00210
H         -3.05590       -0.52490        1.39060
H         -1.41290       -2.85890        0.15850
H         -2.73120       -2.19650       -1.98490
H         -4.86540       -1.56850       -1.39210
H         -3.12130        0.62850       -0.92260
H         -1.97500        0.06000       -2.16380
