19
gdb 15843	4.63134	0.94517	0.83351	1.5011	68.09	-0.247	0.0698	0.3168	1364.2748	0.164384	-402.157163	-402.147773	-402.146829	-402.191931	33.195
O         -0.01140        1.20370       -0.68850
C          0.03490       -0.06170       -0.04490
C         -1.36670       -0.65600       -0.09210
C         -1.46260       -2.02310        0.59240
O         -1.03760       -1.96670        1.95640
C         -2.85210       -2.61270        0.47150
C         -3.14030       -3.65390       -0.54690
N         -3.09430       -4.00080        0.88210
H          0.85690        1.60950       -0.61220
H          0.74140       -0.74090       -0.55090
H          0.35930        0.02520        1.00120
H         -2.06310        0.04500        0.38770
H         -1.68530       -0.74770       -1.13710
H         -0.74970       -2.71500        0.12270
H         -1.69270       -1.45760        2.44760
H         -3.65630       -1.93130        0.75270
H         -4.12390       -3.71470       -1.00380
H         -2.32350       -3.97030       -1.19160
H         -2.20640       -4.44190        1.11270
