15
gdb 5372	5.24426	1.61254	1.24298	2.4987	73.65	-0.2109	-0.0358	0.175	938.5412	0.1214	-358.879945	-358.87297	-358.872026	-358.911123	25.922
C         -0.03170        1.44250        0.03920
N         -0.02830       -0.00560        0.05450
C          0.52860       -0.62300       -0.91880
N          1.15100        0.00090       -2.02540
C          1.73360       -0.69220       -3.04310
N          1.79020       -1.97810       -3.12440
C          1.19910       -2.66120       -2.07190
C          0.59650       -2.06640       -1.01750
H          0.98350        1.87720        0.04580
H         -0.56250        1.86450       -0.83260
H         -0.54190        1.81330        0.93170
H          1.16180        1.00860       -2.05900
H          2.17350       -0.08010       -3.82790
H          1.24950       -3.74310       -2.14500
H          0.14520       -2.63320       -0.21340
