15
gdb 3668	7.29174	1.95107	1.56925	2.3692	63.81	-0.2276	0.0311	0.2587	793.846	0.126068	-304.737418	-304.730148	-304.729203	-304.769128	25.553
C          0.00050        1.51560        0.09500
C          0.01120        0.03070       -0.06870
C          0.00540       -0.77290       -1.19040
C          0.02210       -2.10510       -0.70630
C          0.02410       -3.38050       -1.48920
N          0.03720       -2.12840        0.62430
N          0.03030       -0.82570        0.98560
H          0.88740        1.87410        0.63040
H         -0.01430        1.99900       -0.88390
H         -0.88020        1.85930        0.65000
H         -0.00890       -0.44090       -2.21680
H          0.89930       -3.44760       -2.14500
H          0.03840       -4.23390       -0.80800
H         -0.86390       -3.46200       -2.12600
H          0.03900       -0.59380        1.96420
