20
gdb 19524	3.70892	1.53366	1.43816	1.4218	74.28	-0.2319	0.0863	0.3182	995.561	0.178452	-348.995266	-348.987409	-348.986465	-349.027805	29.687
C          0.17970        1.47610       -0.13570
C         -0.19990        0.01010        0.10630
C          0.57620       -0.59430        1.25620
C          0.75030       -2.09140        1.48270
C          0.49180       -3.05440        0.32290
C          1.74890       -2.87520       -0.55650
O          2.26990       -1.57480       -0.26140
C          1.92300       -1.24710        1.06130
H          1.24100        1.56270       -0.38860
H         -0.40080        1.90510       -0.95850
H         -0.00290        2.08730        0.75530
H         -1.27560       -0.06590        0.31200
H         -0.01450       -0.55970       -0.80890
H          0.49130       -0.02960        2.18380
H          0.66320       -2.46790        2.49510
H          0.39480       -4.08350        0.67900
H         -0.42260       -2.81130       -0.22720
H          2.50160       -3.64190       -0.31740
H          1.54660       -2.91570       -1.63090
H          2.76850       -1.02190        1.70500
