14
gdb 11239	4.21859	1.52777	1.31336	4.1637	63.29	-0.2331	0.0109	0.244	919.6458	0.110185	-374.931661	-374.92447	-374.923525	-374.963366	26.524
N          0.08000        1.31640        0.20470
C         -0.03140       -0.04430        0.03560
N         -1.11830       -0.71260        0.09980
C         -0.76740       -2.11820       -0.05780
C          0.80840       -2.17590       -0.03060
N          1.15420       -0.75840       -0.22100
C          1.33860       -2.70820        1.23170
N          1.76950       -3.11970        2.22250
H          0.77350        1.76590       -0.37600
H         -0.81480        1.78460        0.18530
H         -1.20540       -2.73650        0.73080
H         -1.13280       -2.50070       -1.01850
H          1.20450       -2.78820       -0.84580
H          1.97420       -0.43890        0.27950
