16
gdb 8586	4.66387	1.85367	1.70672	2.7413	70.3	-0.2421	-0.0238	0.2184	798.1183	0.130991	-346.503169	-346.497016	-346.496072	-346.533244	25.102
O         -0.10340       -0.07410       -0.24600
C         -0.03490        1.09410       -0.02970
C         -1.12390        2.21660        0.26280
C          0.06420        2.98990        0.86220
C          1.09960        4.16090        0.92120
C          1.90370        2.82780        1.24220
C          0.72940        2.43260        2.16370
C          1.09910        2.18090        0.06060
H         -1.49070        2.62490       -0.68520
H         -1.97120        1.94640        0.89760
H          1.33230        4.65560       -0.02510
H          1.01260        4.87850        1.74210
H          2.97270        2.76000        1.45520
H          0.58320        3.02420        3.07100
H          0.60630        1.36420        2.36280
H          1.33100        2.55340       -0.94450
