18
gdb 12868	2.57053	2.35203	1.7574	1.4171	72.21	-0.2245	0.0201	0.2446	846.6379	0.153831	-347.799514	-347.791939	-347.790995	-347.830698	29.931
C         -0.12320        1.54060       -0.00850
C          0.04150        0.04130        0.08110
C          1.35100       -0.71200       -0.20790
C          2.62740        0.04900       -0.11400
C          2.84340        0.50570        1.12340
C          1.74350        0.09100        2.07630
C          0.76110       -0.68470        1.18840
O          0.19680       -1.85130        1.71420
H          0.79880        2.06720        0.24940
H         -0.40240        1.84020       -1.02470
H         -0.91240        1.89110        0.66690
H         -0.82090       -0.52400       -0.26680
H          1.28340       -1.59950       -0.82730
H          3.27940        0.21280       -0.96470
H          3.68880        1.10890        1.43470
H          2.11550       -0.56950        2.87040
H          1.27840        0.95270        2.57350
H         -0.58350       -1.60270        2.22130
