16
gdb 14814	2.48034	1.9816	1.22192	2.9606	71.09	-0.2459	-0.0225	0.2234	980.128	0.128816	-346.565641	-346.557568	-346.556624	-346.598622	29.264
O         -0.08750       -0.06370       -0.21990
C         -0.03310        1.11320        0.02800
C          1.23480        1.92690        0.01570
C          1.09970        3.22060       -0.85440
C          0.84180        4.05110        0.42710
C          1.40390        2.86560        1.27440
C          0.74890        2.51210        2.51740
C          0.18720        2.21840        3.53960
H         -0.95580        1.69050        0.26640
H          2.07250        1.26270       -0.20060
H          2.04760        3.46840       -1.33710
H          0.31510        3.21930       -1.61450
H          1.35610        5.00850        0.52750
H         -0.22280        4.20330        0.61710
H          2.47490        3.00870        1.44960
H         -0.30270        1.95560        4.44440
