21
gdb 7345	4.20779	1.04914	0.86218	3.2945	77.54	-0.2333	0.0365	0.2697	1394.8168	0.186768	-366.300969	-366.290574	-366.289629	-366.33711	35.561
C          0.01430        1.57830        0.05480
C          0.02430        0.04870        0.00520
C         -1.38670       -0.54420        0.01890
C         -1.36920       -2.07420       -0.03110
O         -0.31330       -2.68610       -0.07540
N         -2.58040       -2.72530       -0.02390
C         -2.60170       -4.17740       -0.07100
C         -3.88070       -2.08990        0.02600
H          1.03240        1.97930        0.04420
H         -0.51840        2.00430       -0.80330
H         -0.47750        1.94730        0.96240
H          0.54800       -0.29980       -0.89030
H          0.58850       -0.35600        0.85110
H         -1.92170       -0.21260        0.91860
H         -1.96250       -0.15590       -0.83170
H         -3.10370       -4.58610        0.81550
H         -3.14260       -4.52800       -0.95960
H         -1.57410       -4.53410       -0.10530
H         -4.47820       -2.35630       -0.85680
H         -4.43930       -2.41650        0.91390
H         -3.79430       -1.00650        0.06100
