16
gdb 9048	5.18382	1.0632	0.92006	4.2585	70.98	-0.2515	0.0137	0.2652	1203.3896	0.128732	-342.747807	-342.738739	-342.737795	-342.782604	31.99
C          1.00270        1.24120       -0.65430
C          0.16690        0.03410       -0.17810
N          0.36650       -1.22830       -0.88970
C         -0.32440       -1.38570       -2.16780
C          0.19410       -0.62470       -3.31420
C          0.64190       -0.03040       -4.25920
C          0.41500       -0.20100        1.25890
N          0.63360       -0.36270        2.38170
H          2.07100        1.02350       -0.56190
H          0.77890        1.45890       -1.69940
H          0.78200        2.12420       -0.04760
H         -0.89730        0.28430       -0.27380
H          1.35530       -1.43320       -0.98330
H         -0.30320       -2.45200       -2.42340
H         -1.38130       -1.13720       -2.01100
H          1.03280        0.49910       -5.09310
