17
gdb 15584	2.78856	2.04194	1.41602	4.129	68.07	-0.2691	0.0265	0.2956	914.383	0.143277	-363.88931	-363.88144	-363.880496	-363.922518	28.34
C         -0.15140        1.53180       -0.08820
C          0.06630        0.03490        0.01470
O          0.87210       -0.40720       -1.06080
C          1.24970       -1.74360       -0.77360
C          1.42850       -1.83060        0.76560
C          0.81120       -0.49450        1.28040
C          1.83890        0.43140        1.75230
N          2.65130        1.16160        2.13120
H          0.80190        2.06480       -0.05720
H         -0.65450        1.76740       -1.02930
H         -0.77710        1.88630        0.73610
H         -0.90750       -0.48620       -0.01030
H          0.46840       -2.44270       -1.10880
H          2.16530       -1.95940       -1.32830
H          0.89850       -2.68810        1.18470
H          2.47720       -1.91390        1.05230
H          0.10860       -0.66200        2.10140
