17
gdb 3045	10.27432	1.01827	0.99298	2.8081	65.69	-0.2475	-0.019	0.2284	1157.9233	0.147134	-309.71657	-309.708733	-309.707789	-309.749615	27.302
O         -0.50250        0.68780        0.79470
C          0.05610        1.05730       -0.20580
C          1.36620        1.80690       -0.24820
C          1.23560        3.15280       -0.98820
C          2.56370        3.86200       -1.14620
C          3.47950        3.51620       -2.29390
C          2.77470        4.85150       -2.26220
H         -0.38910        0.86380       -1.21170
H          1.72520        1.94450        0.77600
H          2.09310        1.18030       -0.78470
H          0.79680        2.98160       -1.98050
H          0.53080        3.79630       -0.44640
H          3.05530        4.09790       -0.20540
H          4.54900        3.49170       -2.11760
H          3.13330        2.78160       -3.01450
H          1.95890        5.00840       -2.96050
H          3.36170        5.74060       -2.06090
