14
gdb 20526	4.87757	1.74876	1.29747	1.5086	65.71	-0.2621	-0.0432	0.2189	888.6133	0.108302	-378.775458	-378.768468	-378.767523	-378.807022	25.193
C         -0.08720        1.49560        0.00980
C          0.05090       -0.00420        0.00290
O          1.09440       -0.60820       -0.00830
N         -1.16960       -0.72430        0.01090
C         -1.29500       -2.09000        0.00700
C         -2.63560       -2.35930        0.01770
C         -3.25970       -1.08140        0.02790
N         -2.37970       -0.09760        0.02380
H          0.91240        1.92880        0.00250
H         -0.65740        1.83130       -0.85990
H         -0.64170        1.82460        0.89210
H         -0.41780       -2.71430       -0.00290
H         -3.10750       -3.32830        0.01820
H         -4.31610       -0.85340        0.03800
