15
gdb 7619	4.75885	1.36306	1.21189	0.7817	62.97	-0.2553	-0.0326	0.2228	987.909	0.117201	-399.816678	-399.808734	-399.80779	-399.850027	28.055
C          0.31070        0.26480        0.96940
C         -0.37720        0.70440       -0.30190
O         -0.19630        1.77750       -0.82750
C         -1.33150       -0.28100       -0.96620
C         -0.69120       -1.28140       -1.96480
C         -1.19960       -2.32540       -0.99320
N         -1.17330       -3.57480       -0.94350
O         -1.74260       -1.39800       -0.11730
H          0.99800        1.04370        1.29990
H         -0.43520        0.06040        1.74460
H          0.85300       -0.67440        0.81250
H         -2.19870        0.25990       -1.35080
H         -1.14140       -1.31050       -2.95720
H          0.39490       -1.23110       -2.06010
H         -1.64120       -3.92960       -0.10800
