17
gdb 8014	3.28782	2.09249	1.57868	2.9839	69.51	-0.2553	0.0284	0.2836	858.9368	0.142564	-363.858705	-363.851457	-363.850513	-363.889979	28.034
C         -0.18950        1.57840        0.11390
C          0.05650        0.09680        0.11120
C         -1.10710       -0.92380        0.06830
C         -0.39600       -1.77400        1.16620
C          0.77870       -0.74730        1.20790
C          1.80000       -0.98980        0.12670
N          2.89310       -1.60270        0.06320
O          1.11000       -0.28800       -0.84600
H          0.74030        2.12860        0.28520
H         -0.60460        1.89810       -0.84830
H         -0.90450        1.84630        0.89790
H         -2.06360       -0.50510        0.39120
H         -1.23890       -1.39600       -0.90690
H         -0.95070       -1.80760        2.10550
H         -0.11100       -2.79150        0.89390
H          1.12630       -0.37690        2.17020
H          3.29240       -1.54880       -0.87580
