17
gdb 17367	4.11391	1.67756	1.36773	3.4327	67.61	-0.2357	0.0303	0.2661	919.5726	0.142866	-363.86508	-363.857345	-363.856401	-363.898024	28.955
N         -0.06700        1.34330        0.00650
C          0.10810       -0.01400        0.08250
O          1.20440       -0.51770        0.22790
C         -1.18790       -0.81070       -0.01300
C         -1.93180       -0.87360       -1.40350
C         -1.85010       -2.40290       -1.34440
C         -0.41690       -2.83840       -1.24980
C         -1.09700       -2.33660       -0.00980
H          0.75630        1.92010       -0.05770
H         -0.94940        1.74590       -0.25840
H         -1.87790       -0.44360        0.75330
H         -2.94970       -0.48200       -1.34420
H         -1.42170       -0.40150       -2.25040
H         -2.64200       -3.07700       -1.64610
H         -0.25800       -3.91170       -1.27450
H          0.37840       -2.25960       -1.70950
H         -1.20740       -2.95590        0.87120
