16
gdb 11073	2.62204	2.2453	1.69036	2.5659	61.18	-0.2211	0.0442	0.2653	833.1316	0.128403	-420.819529	-420.81153	-420.810585	-420.851256	30.224
C          0.05140        1.54950       -0.02620
C          0.07040        0.06320        0.06420
O          0.58180       -0.70090       -1.04460
C          1.22400       -1.64900       -0.15010
C          0.58670       -0.96990        1.04820
O          1.13990       -0.78600        2.30660
C         -0.90900       -0.79970        0.83250
O         -1.56730       -0.18530        1.89950
H          1.06030        1.96640       -0.09890
H         -0.51240        1.85780       -0.91380
H         -0.44730        1.96190        0.85400
H          0.94420       -2.68630       -0.37020
H          2.31520       -1.53880       -0.17810
H          1.08070       -1.62030        2.78990
H         -1.51000       -1.54670        0.31410
H         -0.94930       -0.17000        2.64290
