19
gdb 10312	2.43137	1.75142	1.0829	3.2431	72.44	-0.2848	0.0188	0.3036	1123.1566	0.163022	-365.073763	-365.064015	-365.063071	-365.108236	34.209
C          0.01520        1.38090       -0.21540
O         -0.01800        0.01830        0.17170
C         -1.29300       -0.57630        0.10250
C         -1.73810       -0.68200       -1.30840
N         -2.06810       -0.74920       -2.41400
C         -1.23020       -1.96040        0.78240
C         -0.77240       -1.80570        2.23760
C         -2.57740       -2.68700        0.69010
H          1.04400        1.71990       -0.08040
H         -0.27180        1.51130       -1.26730
H         -0.65080        1.99130        0.41230
H         -2.03630        0.04740        0.62970
H         -0.47560       -2.53800        0.23480
H         -1.50780       -1.23740        2.82000
H         -0.66710       -2.78840        2.70670
H          0.18580       -1.28710        2.29810
H         -2.89620       -2.83040       -0.34590
H         -2.50460       -3.67210        1.15960
H         -3.36310       -2.12940        1.21360
