14
gdb 7938	3.92547	1.86271	1.28369	3.2435	60.46	-0.2627	-0.0039	0.2588	896.0919	0.108174	-415.922125	-415.914761	-415.913816	-415.954165	25.869
C         -0.05420        1.39910       -0.06400
N         -0.02920       -0.04490       -0.04120
C         -1.20420       -0.88370       -0.02770
C         -0.58790       -2.26690       -0.00460
N         -1.21410       -3.35480        0.01230
O          0.78010       -2.12330       -0.00560
C          1.12500       -0.76770       -0.02780
O          2.26100       -0.39170       -0.03280
H          0.97840        1.75020       -0.06680
H         -0.56320        1.77020       -0.96140
H         -0.56790        1.79800        0.81860
H         -1.83260       -0.71830        0.85650
H         -1.83230       -0.74770       -0.91710
H         -0.57380       -4.14970        0.02590
