14
gdb 3558	5.16949	2.94387	2.61934	1.6581	55.92	-0.247	0.0618	0.3088	569.4784	0.115292	-324.510378	-324.504877	-324.503933	-324.539333	21.639
O         -0.03420        1.48850       -0.06960
C         -0.02730        0.08140       -0.08460
C         -1.36950       -0.60290       -0.16080
C         -1.74830       -0.74310       -1.59750
C         -0.66710       -0.11090       -2.45640
C          0.28230       -0.68730       -1.39280
N         -0.80120       -1.73800       -0.98400
H          0.85330        1.79840        0.13610
H          0.55760       -0.33540        0.74540
H         -2.06950       -0.78850        0.64540
H         -2.75140       -1.03560       -1.88680
H         -0.56560       -0.63730       -3.40840
H         -0.66860        0.97140       -2.61000
H          1.28990       -1.02040       -1.63510
