15
gdb 1880	5.59112	1.96604	1.53851	2.2377	56.85	-0.2381	-0.0172	0.2209	771.382	0.125144	-345.686487	-345.679746	-345.678801	-345.717243	25.187
O          0.02410        1.38850        0.18800
C          0.04900       -0.01260       -0.00950
C         -1.39560       -0.53770       -0.06890
C         -1.28020       -1.90310       -0.75960
C         -0.05410       -1.78380       -1.67640
O          0.28820       -2.58790       -2.50280
C          0.65920       -0.46860       -1.34570
H          0.93040        1.69750        0.28340
H          0.57890       -0.50880        0.82010
H         -1.86220       -0.57770        0.91750
H         -1.97690        0.16000       -0.68240
H         -1.06940       -2.70540       -0.04020
H         -2.16280       -2.21180       -1.32470
H          0.39040        0.26340       -2.11970
H          1.74540       -0.58620       -1.35930
