17
gdb 7569	3.13226	1.64223	1.56934	3.7598	63.74	-0.2498	0.0218	0.2716	910.5238	0.141109	-401.011131	-401.002339	-401.001395	-401.045366	30.944
C         -0.13760        1.57680        0.16320
C         -0.00920        0.05720        0.02600
C          1.13680       -0.42690       -0.90660
O          1.87160       -0.96670        0.20140
C          0.81850       -0.63030        1.13420
C         -1.38630       -0.56830       -0.18620
N         -1.88590       -0.45170       -1.45240
O         -2.01150       -1.09230        0.71510
H          0.84220        2.02510        0.35570
H         -0.54770        2.02980       -0.74550
H         -0.80140        1.83270        0.99520
H          0.85820       -1.20180       -1.63420
H          1.69000        0.36720       -1.42580
H          1.17700        0.02780        1.93430
H          0.34210       -1.51360        1.56950
H         -1.33620       -0.10950       -2.22060
H         -2.77850       -0.87370       -1.65080
