20
gdb 10232	2.73771	1.16772	0.91252	2.1473	67.73	-0.2487	0.0692	0.3179	1305.0978	0.174844	-423.254516	-423.244375	-423.243431	-423.290238	35.126
C         -0.17690        1.32200        0.07970
O          0.02490       -0.07660        0.04900
C          0.71610       -0.60860        1.18660
C         -0.30200       -0.85760        2.30790
O         -1.35880       -1.68350        1.86010
C          1.41450       -1.89160        0.73840
C          2.42630       -1.67660       -0.38810
O          3.11590       -2.86960       -0.73200
H          0.77960        1.86290        0.12670
H         -0.69030        1.59240       -0.84620
H         -0.79640        1.64210        0.92930
H          1.46660        0.12100        1.53250
H          0.18030       -1.36740        3.14860
H         -0.68250        0.10610        2.68460
H         -1.61220       -1.32990        0.99770
H          1.92980       -2.33250        1.59940
H          0.64810       -2.61030        0.42410
H          1.92520       -1.23280       -1.25880
H          3.20300       -0.97290       -0.06580
H          2.46930       -3.48760       -1.08770
