12
gdb 5341	6.08871	1.5779	1.25314	1.9572	71.83	-0.2558	-0.0556	0.2002	884.5438	0.085725	-340.403477	-340.397205	-340.396261	-340.43388	23.381
C          0.01850       -1.20800       -0.00390
C          0.00230       -0.00420        0.00250
C         -0.01710        1.41520        0.01040
C         -1.21290        2.14840        0.03010
N         -1.23940        3.47810        0.03770
C         -0.05350        4.09040        0.02530
N          1.14860        3.51080        0.00640
C          1.15840        2.18080       -0.00090
H          0.03230       -2.27010       -0.00930
H         -2.16930        1.63180        0.03990
H         -0.06830        5.17720        0.03140
H          2.12850        1.69060       -0.01640
