15
gdb 20372	6.27713	1.47114	1.3176	4.6961	67.31	-0.2534	0.0009	0.2543	921.6501	0.121022	-358.822433	-358.815903	-358.814959	-358.85378	24.416
C         -0.18380        1.36270       -0.28730
C          1.22990        1.08120        0.16930
C          0.22000       -0.03130        0.10690
N         -0.28730       -0.63520        1.30520
C         -0.57100       -0.09740        2.51560
C         -1.02390       -1.16120        3.25990
N         -0.99620       -2.27810        2.48630
N         -0.55050       -1.96060        1.30330
H         -0.83480        1.90590        0.38860
H         -0.36900        1.55510       -1.33790
H          2.02880        1.07770       -0.56330
H          1.52450        1.43610        1.15070
H          0.31720       -0.78790       -0.66030
H         -0.43580        0.94650        2.74120
H         -1.35980       -1.18460        4.28380
