18
gdb 8839	4.61502	1.2248	0.98562	1.9672	72.5	-0.2475	-0.0119	0.2356	1186.9243	0.152888	-381.163232	-381.153888	-381.152944	-381.198032	32.297
C          0.01430        1.55130        0.03910
C         -0.03920        0.02510        0.02260
C         -1.46890       -0.49770        0.01550
O         -2.42870        0.24740        0.02300
N         -1.61730       -1.88830        0.00000
C         -0.48200       -2.80760       -0.00920
C         -2.90990       -2.41280       -0.00690
N         -3.12640       -3.66580       -0.02090
H          1.05260        1.89430        0.04390
H         -0.48750        1.96890       -0.83680
H         -0.48940        1.95000        0.92260
H          0.48820       -0.37300       -0.85350
H          0.48640       -0.39180        0.89090
H          0.13910       -2.68190        0.88230
H         -0.88850       -3.81790       -0.02000
H          0.13980       -2.66320       -0.89740
H         -3.65670       -1.61980        0.00130
H         -4.12850       -3.84460       -0.02380
