15
gdb 4261	3.81938	1.8292	1.24647	6.7669	71.48	-0.2107	-0.0084	0.2022	931.799	0.120791	-362.730359	-362.723263	-362.722319	-362.761593	26.838
C         -0.02270        1.52070        0.06380
C          0.00140        0.02260       -0.03320
C         -0.02690       -0.67840       -1.19430
C         -0.00160       -2.14280       -1.24190
O         -0.02700       -2.78240       -2.28930
C          0.05710       -2.76840        0.08350
C          0.08340       -2.02550        1.21140
N          0.05640       -0.65530        1.16400
H          0.87360        1.90060        0.56870
H         -0.06670        1.96570       -0.93070
H         -0.89390        1.86800        0.63230
H         -0.07030       -0.15040       -2.13970
H          0.07890       -3.84970        0.13790
H          0.12670       -2.45300        2.20660
H          0.07740       -0.13130        2.02280
