12
gdb 606	6.3441	3.06012	2.36016	1.2269	52.51	-0.2506	0.0359	0.2864	545.6297	0.094612	-269.177232	-269.17084	-269.169895	-269.206904	23.083
O          0.08100        1.38290        0.07520
C          0.02860       -0.00420        0.04990
C         -0.38740       -0.76640        1.27060
C         -1.32350       -0.71210        0.06000
C         -2.48900        0.11620        0.09890
C         -3.42060        0.88030        0.10300
H         -0.81080        1.72060       -0.08360
H          0.79480       -0.43940       -0.58670
H          0.08390       -1.71840        1.48830
H         -0.67780       -0.17990        2.13420
H         -1.40940       -1.61560       -0.53530
H         -4.27020        1.51700        0.12740
