12
gdb 2735	4.54498	2.26204	1.62776	5.1134	55.77	-0.2701	-0.0478	0.2223	721.2381	0.089818	-323.396217	-323.389779	-323.388835	-323.427013	22.635
O         -0.00650       -0.01240       -0.02020
C         -0.03540        1.17420        0.04390
C         -1.12600        2.22960        0.25940
C         -0.00930        3.27320        0.55620
C          1.08260        2.27660        0.03440
C          2.27540        2.05630        0.82430
N          3.20960        1.87570        1.48120
H         -1.68300        2.42540       -0.66270
H         -1.84090        2.00660        1.05440
H         -0.06700        4.21610        0.01420
H          0.10510        3.47520        1.62140
H          1.35830        2.48830       -1.00500
