18
gdb 19765	2.99278	2.77745	2.34451	1.4781	69.28	-0.2176	0.0811	0.2986	716.3825	0.158143	-347.808316	-347.80248	-347.801535	-347.838023	24.452
C          0.03140        1.57290       -0.03530
C          1.51780        1.88550        0.06060
C          2.18240        0.69350        0.76370
C          1.08090       -0.30950        1.07510
C          0.03210        0.02820       -0.00770
C          0.54880       -0.47980       -1.35740
O          1.83670        0.05370       -1.67030
C          2.38020        0.92310       -0.71000
H         -0.50770        1.98630        0.82490
H         -0.43530        1.96770       -0.94470
H          1.85100        2.90510        0.22030
H          3.01280        0.82140        1.44940
H          1.41510       -1.35130        1.01310
H          0.68070       -0.14520        2.08220
H         -0.95220       -0.40340        0.19080
H          0.62460       -1.57660       -1.35080
H         -0.14370       -0.19850       -2.16370
H          3.35140        1.26330       -1.05120
