12
gdb 21832	6.05267	1.46675	1.18064	0.619	58.36	-0.2557	-0.0243	0.2314	914.9752	0.085389	-414.677178	-414.670753	-414.669809	-414.708264	23.094
O         -0.31620        0.03850        0.00230
C         -0.09280        1.22630        0.00850
N          1.15130        1.80420        0.00150
C          2.36550        1.13060       -0.01360
N          3.47310        1.84140       -0.01770
O          4.50110        0.90640       -0.03320
C          3.97020       -0.32390       -0.03780
C          2.61520       -0.27230       -0.02600
H         -0.88680        1.99590        0.02100
H          1.21270        2.81230        0.00820
H          4.67690       -1.13920       -0.04980
H          1.89270       -1.06660       -0.02580
