16
gdb 8634	2.47803	1.74752	1.38735	4.4596	70.66	-0.2681	0.0021	0.2702	977.3661	0.128189	-342.75035	-342.741127	-342.740183	-342.783715	33.328
C         -0.08770        1.54570        0.09260
C         -0.00480        0.02330       -0.01830
C          0.76350       -0.49070       -1.28210
N          2.16160       -0.03940       -1.39440
C          0.74800       -1.96030       -1.27200
C          0.73440       -3.15840       -1.20470
C          0.04840       -0.01210       -2.49150
N         -0.53180        0.39920       -3.40140
H          0.90300        2.00410        0.17790
H         -0.59400        1.98210       -0.77350
H         -0.65130        1.82490        0.98700
H          0.51150       -0.40160        0.84960
H         -1.00990       -0.41040       -0.03360
H          2.20020        0.97470       -1.35080
H          2.68620       -0.40480       -0.60480
H          0.72370       -4.22020       -1.16890
