14
gdb 15029	2.59309	1.85509	1.21703	2.5606	63.84	-0.2563	-0.0389	0.2174	963.8301	0.103829	-382.480225	-382.471951	-382.471007	-382.514146	28.518
O         -0.18320        0.19860        0.37800
C         -0.00830        1.33200        0.02350
C          1.39010        1.96630       -0.09840
C          1.46180        2.81150       -1.28090
C          1.47690        3.48800       -2.27400
C          1.67560        2.70520        1.21490
C          2.42440        3.96340        1.28350
O          0.99970        3.93810        1.42570
H         -0.84490        2.01990       -0.21500
H          2.10240        1.13510       -0.16920
H          1.50080        4.08650       -3.15140
H          1.68710        2.03760        2.07710
H          2.97900        4.20380        2.18880
H          2.78750        4.41550        0.36380
