13
gdb 9569	4.73142	1.32083	1.22134	3.9593	66.33	-0.285	-0.019	0.2661	975.9101	0.092545	-361.41715	-361.409091	-361.408147	-361.449465	28.791
C         -0.08010        1.54560       -0.08510
C         -0.03350        0.04210        0.05140
O          1.22530       -0.59430       -0.16150
C          0.68530       -0.64260        1.16770
C          1.35710        0.09680        2.19890
C          1.90950        0.68820        3.08720
C         -1.16910       -0.66790       -0.52120
N         -2.08600       -1.20970       -0.96970
H          0.77020        1.98990        0.43380
H         -0.04290        1.82510       -1.14150
H         -1.00710        1.93760        0.34290
H          0.32300       -1.62740        1.45880
H          2.40180        1.21140        3.87030
