15
gdb 18651	3.15394	2.57279	1.54875	4.39	67.09	-0.2429	-0.0416	0.2013	798.2606	0.120894	-362.67125	-362.664782	-362.663837	-362.702081	24.729
O         -0.04230        0.05110        0.48940
C         -0.05240        1.18180        0.05530
C         -1.30180        1.88410       -0.33020
C         -1.39880        3.21230       -0.22960
C         -0.23410        4.08450        0.17180
C          1.10210        3.38280       -0.05220
C          1.79560        2.57290        1.00220
N          1.12640        1.92680       -0.11770
H         -2.15410        1.25370       -0.55680
H         -2.35310        3.70720       -0.39450
H         -0.25530        5.01290       -0.40880
H         -0.36070        4.39300        1.21850
H          1.73610        3.84650       -0.80530
H          2.87980        2.50440        1.01420
H          1.32050        2.49280        1.97740
