22
gdb 11827	2.96735	1.77427	1.42286	0.2142	81.86	-0.2582	0.0851	0.3433	1011.1915	0.200075	-313.053571	-313.044997	-313.044053	-313.086137	33.55
C          0.75550        1.48580       -0.23690
C         -0.01640        0.19300        0.00900
C          0.37260       -0.96410       -0.96470
C          1.18040       -1.59990        0.17240
C          1.63200       -3.02000        0.31780
C          2.64890       -1.91750        0.11750
C          0.48380       -0.69490        1.20540
C          1.28430       -0.07860        2.34340
H          1.83200        1.30280       -0.32190
H          0.42760        1.95350       -1.17190
H          0.60190        2.21110        0.56940
H         -1.08760        0.41320        0.04510
H         -0.48630       -1.57160       -1.26850
H          0.92700       -0.67280       -1.86260
H          1.57090       -3.48040        1.29960
H          1.44770       -3.70460       -0.50450
H          3.14920       -1.85050       -0.84380
H          3.27360       -1.64360        0.96180
H         -0.37620       -1.23010        1.62780
H          2.15870        0.47010        1.98110
H          0.66950        0.61690        2.92550
H          1.64170       -0.85180        3.03360
