17
gdb 1690	4.34993	1.72441	1.31556	1.4463	56.67	-0.2598	0.0616	0.3214	909.1521	0.14615	-383.982605	-383.973862	-383.972918	-384.015368	31.438
C         -0.00440        1.55280        0.00870
C          0.00760        0.02840        0.05490
O          0.73200       -0.46750        1.17900
C         -1.40840       -0.56160        0.03070
O         -2.06040       -0.09640       -1.13770
C         -1.39830       -2.08740        0.04480
O         -2.76090       -2.48980       -0.09900
H          1.01830        1.93930        0.00460
H         -0.52780        1.90530       -0.88260
H         -0.52430        1.96090        0.88550
H          0.54480       -0.35590       -0.82080
H          0.38800       -0.02590        1.96360
H         -1.94770       -0.21690        0.93360
H         -2.82000       -0.68110       -1.25670
H         -0.79020       -2.45150       -0.79670
H         -0.95980       -2.45730        0.97880
H         -2.78400       -3.42890       -0.30110
