16
gdb 2418	4.26091	3.47244	2.53479	1.6698	64.89	-0.2257	0.1011	0.3268	605.8342	0.137479	-288.547509	-288.541648	-288.540704	-288.576664	23.471
C         -0.03760        1.44630        0.01140
C          0.08060       -0.04790       -0.03160
C          0.56680       -0.94620       -1.17850
C          0.05470       -1.89490       -0.09570
C          0.58520       -1.02990        1.08290
C         -0.81040       -1.04180        1.69170
N         -1.15950       -0.97660        0.20780
H          0.94720        1.91320       -0.09810
H         -0.67730        1.80250       -0.80260
H         -0.47030        1.78720        0.95770
H         -0.01830       -0.90550       -2.10210
H          1.64180       -0.95400       -1.37860
H         -0.07420       -2.97840       -0.11500
H          1.57520       -1.06220        1.55230
H         -1.15250       -1.96320        2.17490
H         -1.14290       -0.16940        2.26370
