13
gdb 5489	3.47689	2.07142	1.29807	3.7636	62.81	-0.2071	-0.0295	0.1775	859.6332	0.096208	-398.64956	-398.642622	-398.641678	-398.680651	25.619
O          0.11270        1.33520        0.20630
C          0.07510        0.00000       -0.01300
C          0.06690       -0.76690       -1.13870
C          0.01940       -2.14010       -0.69850
C          0.00070       -2.15790        0.65940
N          0.03500       -0.82920        1.10260
C          0.02960       -0.41900        2.43240
O         -0.00610       -1.18320        3.36220
H          0.13710        1.78430       -0.64430
H          0.09140       -0.40890       -2.15640
H          0.00170       -3.00720       -1.34070
H         -0.03300       -2.95060        1.38550
H          0.06140        0.67700        2.52780
