18
gdb 6825	3.18503	1.70466	1.45528	3.76	68.23	-0.2426	-0.0288	0.2138	941.682	0.151254	-384.930666	-384.922037	-384.921093	-384.964109	31.038
C         -0.26340        1.56270        0.01900
C         -0.06430        0.04930        0.01780
C         -1.33220       -0.68620       -0.41030
C          1.21770       -0.45970       -0.69330
O          1.66610       -1.15350        0.48770
C          0.61520       -0.60470        1.28060
C          1.08260        0.35600        2.35080
O          2.20440        0.77320        2.46520
H          0.63580        2.09280        0.34560
H         -0.50640        1.90820       -0.99200
H         -1.09120        1.85890        0.67270
H         -1.63990       -0.37250       -1.41420
H         -1.17590       -1.76930       -0.42760
H         -2.16120       -0.47310        0.27370
H          1.06000       -1.14270       -1.53630
H          1.92120        0.32800       -0.99000
H          0.00300       -1.38200        1.76410
H          0.26620        0.67140        3.04480
