44
Lipophilicity 37 -1.100000023841858
C      2.457606   -3.025759   -0.458794
C      2.337379   -2.326337    0.894199
N      2.606932   -0.879281    0.764139
C      3.903427   -0.492205    0.978805
C      4.295110    0.851712    0.947495
C      5.718713    1.209132    1.203166
O      6.563363    0.309158    1.462363
O      6.143046    2.534801    1.159475
C      3.321370    1.825020    0.680245
O      3.636521    3.047617    0.665633
C      1.993554    1.440403    0.421173
C      1.020102    2.417020    0.137060
C     -0.290671    2.055234   -0.145827
F     -1.208954    3.021531   -0.398943
C     -0.657214    0.709281   -0.166731
N     -2.007133    0.337158   -0.485030
C     -2.534106    0.624573   -1.822950
C     -3.565686   -0.427503   -2.280018
N     -4.004032   -1.328090   -1.201033
C     -4.225238   -0.641433    0.081299
C     -5.330027    0.428275   -0.001121
C     -2.893783   -0.078682    0.607679
C      0.292941   -0.284437    0.112239
F     -0.125031   -1.567971   -0.006942
C      1.639326    0.060251    0.439591
H      2.179427   -4.095265   -0.352290
H      1.794889   -2.554986   -1.213185
H      3.505277   -2.963975   -0.822080
H      1.361724   -2.520374    1.380702
H      3.065269   -2.802102    1.589642
H      4.656141   -1.243958    1.190821
H      7.111133    2.778015    1.332656
H      1.270771    3.470965    0.131776
H     -3.005676    1.630201   -1.815143
H     -1.701856    0.660379   -2.560809
H     -4.444714    0.086445   -2.729737
H     -3.112563   -1.048950   -3.082158
H     -4.892535   -1.796510   -1.497294
H     -4.577877   -1.400167    0.815672
H     -6.251433   -0.008593   -0.440824
H     -5.574335    0.794234    1.018805
H     -5.017573    1.297805   -0.613374
H     -2.388702   -0.878757    1.191930
H     -3.064881    0.776129    1.297938
