36
Lipophilicity 1829 -0.5799999833106995
C      5.581834   -0.243325    1.215137
O      4.457901    0.612085    1.048076
C      3.169070    0.124343    0.816243
N      2.912564   -1.217823    0.734299
C      1.645747   -1.692492    0.499053
N      1.416972   -3.096891    0.416197
N      0.601997   -0.822785    0.341304
C      0.859490    0.504072    0.430398
C      2.099173    0.992496    0.656895
N      2.084332    2.338454    0.663566
C      0.772718    2.624297    0.431328
N     -0.004373    1.518723    0.294724
C     -1.427202    1.472492   -0.046929
O     -2.058959    0.412413    0.636636
C     -2.999466   -0.176128   -0.240538
C     -2.700241   -1.675786   -0.356990
O     -3.721815   -2.313978   -1.072533
C     -2.933381    0.530797   -1.604993
O     -4.027084    1.402612   -1.782269
C     -1.617730    1.272366   -1.541198
O     -1.659092    2.503817   -2.214338
H      5.427735   -0.906643    2.092512
H      5.731468   -0.857279    0.301793
H      6.487557    0.373924    1.385770
H      2.207214   -3.768959    0.534299
H      0.456713   -3.465667    0.236414
H      0.393785    3.634988    0.350769
H     -1.911376    2.423266    0.273543
H     -4.013321   -0.062562    0.204240
H     -1.724156   -1.829035   -0.870038
H     -2.635853   -2.114182    0.664103
H     -3.465828   -3.271522   -1.122094
H     -2.921687   -0.186617   -2.455231
H     -4.044427    2.039621   -1.020172
H     -0.803306    0.628168   -1.950421
H     -1.636973    2.292738   -3.184023
