23
Lipophilicity 870 -0.2800000011920929
C      2.606408   -2.610814    1.012635
C      2.133648   -1.761784   -0.124355
N      2.776043   -1.804241   -1.251282
N      1.017434   -0.876088    0.076034
C      0.482787   -0.006818   -0.973487
C     -0.698676    0.774402   -0.463995
C     -0.509267    2.018248    0.160859
C     -1.604324    2.725684    0.667017
C     -2.891859    2.191820    0.563396
C     -3.085978    0.947274   -0.042342
C     -1.993617    0.236606   -0.549791
H      1.735796   -3.058571    1.536128
H      3.178555   -1.984046    1.727829
H      3.258992   -3.432543    0.647185
H      2.520542   -1.227696   -2.082129
H      0.570268   -0.865265    1.021783
H      1.275740    0.694019   -1.314223
H      0.174274   -0.624402   -1.845040
H      0.484402    2.438236    0.256615
H     -1.454251    3.686052    1.143102
H     -3.738136    2.739910    0.956933
H     -4.082554    0.531331   -0.115230
H     -2.156227   -0.731314   -1.007642
