50
Lipophilicity 1416 -0.7900000214576721
C      5.151172    3.133408    1.102613
C      6.123911    1.967643    0.933776
C      5.895955    1.215627   -0.383172
N      4.568060    0.603535   -0.419732
C      4.232840   -0.554648    0.361365
O      5.133576   -1.161526    1.001906
C      2.846401   -1.056295    0.426305
C      1.721708   -0.437702   -0.125829
C      0.660788   -1.260150    0.198829
C     -0.702226   -1.183230   -0.099927
C     -1.532968   -2.235335    0.380897
C     -0.940589   -3.308126    1.098689
N      0.401200   -3.329525    1.348763
C      1.173395   -2.311092    0.902463
N      2.501002   -2.204699    1.057457
C     -3.004005   -2.214057    0.203819
C     -3.675937   -3.330000   -0.313686
N     -5.024127   -3.301515   -0.476914
C     -5.765310   -2.211835   -0.145614
C     -5.147334   -1.069775    0.386712
C     -3.754933   -1.085401    0.566381
C     -5.947429    0.120525    0.747895
O     -5.386884    1.149547    1.213531
O     -7.329090    0.115972    0.574905
N     -1.215452   -0.098594   -0.890057
C     -2.000323   -0.207489   -1.980744
C     -2.245974    1.057097   -2.470047
C     -1.568226    1.898448   -1.606098
N     -0.932983    1.174591   -0.664061
C     -1.447125    3.382283   -1.743180
F     -2.653697    3.918609   -2.154597
F     -0.473305    3.678844   -2.677924
F     -1.096938    3.942441   -0.528173
H      5.247494    3.843215    0.253614
H      4.105321    2.763149    1.155319
H      5.380731    3.674093    2.044838
H      7.161923    2.364535    0.943416
H      6.018644    1.272476    1.793895
H      6.673410    0.431119   -0.506959
H      6.000830    1.924246   -1.233777
H      3.868266    1.004142   -1.082314
H      1.679882    0.485004   -0.687307
H     -1.555133   -4.114442    1.478286
H      3.131033   -2.874916    1.552327
H     -3.127229   -4.217680   -0.601283
H     -6.836129   -2.241734   -0.298614
H     -3.252113   -0.223683    0.988885
H     -7.886564    0.926096    0.818184
H     -2.353232   -1.138947   -2.404442
H     -2.822286    1.325755   -3.345326
