38
Lipophilicity 50 -0.9200000166893005
C     -4.696406    1.953010   -1.130082
C     -3.534938    1.499924   -0.246486
N     -3.131062    0.104964   -0.541855
C     -4.150555   -0.908873   -0.173026
C     -4.488612   -0.945326    1.324132
C     -1.798172   -0.208919    0.021484
C     -0.702125    0.136192   -0.992343
N      0.621846   -0.201408   -0.468668
C      1.807895    0.016301   -1.249008
O      1.700997    0.356153   -2.459563
C      3.157817   -0.169027   -0.663474
C      3.376563   -0.033693    0.720105
C      4.656793   -0.205252    1.255601
C      5.738697   -0.508000    0.419160
N      7.047215   -0.683105    0.968833
C      5.530547   -0.632280   -0.960218
C      4.251859   -0.460198   -1.498454
H     -4.494190    1.697084   -2.191789
H     -4.819322    3.053561   -1.046177
H     -5.645968    1.479581   -0.805815
H     -3.793051    1.634894    0.824939
H     -2.688091    2.188611   -0.455942
H     -5.081775   -0.743252   -0.753153
H     -3.794038   -1.916258   -0.481499
H     -5.105386   -1.843863    1.536435
H     -5.082933   -0.055521    1.616471
H     -3.570390   -1.001497    1.944127
H     -1.703633   -1.294480    0.251833
H     -1.622192    0.343713    0.972701
H     -0.882720   -0.434179   -1.929450
H     -0.730238    1.220827   -1.227902
H      0.701507   -0.647337    0.472775
H      2.569260    0.229278    1.390221
H      4.806493   -0.095411    2.322410
H      7.860351   -0.907024    0.352753
H      7.212434   -0.590548    1.995975
H      6.358808   -0.862597   -1.618575
H      4.116717   -0.566041   -2.567823
