34
Lipophilicity 998 -0.8399999737739563
C     -1.607243    4.103837    2.241158
C     -1.625475    2.801103    1.496795
C     -2.842579    2.210839    1.142655
C     -2.864221    0.981172    0.484870
C     -1.664941    0.309013    0.176470
O     -1.675794   -0.924822   -0.494820
C     -2.847469   -1.613292   -0.921403
C     -2.447797   -2.873397   -1.611541
O     -2.175103   -3.902522   -0.936598
O     -2.329087   -2.897024   -2.998382
C     -0.427279    0.889694    0.550915
C     -0.427234    2.131958    1.215444
N      0.830943    0.236027    0.270274
N      2.016532    0.774933    0.559092
C      2.919212   -0.129273    0.152764
C      4.307946   -0.073106    0.221454
C      5.024646   -1.176761   -0.283787
C      4.338468   -2.289127   -0.829974
C      2.929648   -2.306539   -0.876976
C      2.261322   -1.195958   -0.370981
N      0.942922   -0.966376   -0.295237
H     -2.477782    4.731821    1.953674
H     -0.682326    4.674952    2.010532
H     -1.648037    3.906036    3.333177
H     -3.778605    2.703880    1.375007
H     -3.824493    0.559561    0.221073
H     -3.483678   -1.858024   -0.043214
H     -3.423825   -0.976770   -1.626860
H     -2.041239   -3.740179   -3.480624
H      0.509377    2.583828    1.518343
H      4.817441    0.781742    0.647689
H      6.106325   -1.174543   -0.252044
H      4.899270   -3.132031   -1.212173
H      2.390156   -3.150649   -1.285904
