21
Lipophilicity 1545 -0.09000000357627869
C      2.990357    0.268489    0.153411
N      1.532019    0.090657    0.057187
C      0.700372    1.199961    0.044691
O      1.200872    2.359772    0.081289
N     -0.670370    1.053689   -0.006080
C     -1.557033    2.223192   -0.065509
C     -1.173793   -0.209590   -0.058654
N     -2.470625   -0.566511   -0.133125
C     -2.404365   -1.924581   -0.141337
N     -1.138756   -2.404694   -0.074847
C     -0.382342   -1.301509   -0.025453
C      0.993728   -1.176369    0.045481
O      1.722942   -2.204774    0.097243
H      3.319695    1.170432   -0.405437
H      3.535298   -0.591677   -0.290650
H      3.282667    0.372283    1.219490
H     -1.575978    2.622902   -1.101178
H     -1.201878    3.016342    0.626663
H     -2.593219    1.964247    0.239772
H     -3.278573   -2.559787   -0.195242
H     -0.831018   -3.402472   -0.067715
