33
Lipophilicity 746 -0.49000000953674316
N     -2.562544    2.060607    1.289756
C     -3.353242    1.063912    0.568076
C     -2.773400    0.724706   -0.822075
C     -1.411585    0.004815   -0.816536
O     -0.391352    0.872913   -0.320029
C      0.971045    0.612741   -0.495421
N      1.714803    0.247697    0.583307
C      3.044740   -0.027885    0.490924
C      3.685858    0.072798   -0.750740
C      2.952522    0.462366   -1.872297
C      1.586772    0.740388   -1.753736
C      0.850300    1.195818   -2.905637
N      0.258571    1.561892   -3.830357
C      3.814722   -0.434904    1.712668
F      2.982101   -0.487206    2.817049
F      4.821411    0.481969    1.954053
F      4.374051   -1.684199    1.515226
C     -1.460473   -1.279997   -0.034889
O     -1.900286   -2.418205   -0.516986
N     -1.850645   -3.357558    0.382161
C     -1.357945   -2.803786    1.506942
C     -1.097084   -1.469695    1.282942
H     -2.276760    2.826042    0.636878
H     -1.700503    1.608593    1.668793
H     -3.458398    0.146583    1.185757
H     -4.376728    1.471781    0.425476
H     -3.507546    0.076656   -1.349487
H     -2.685744    1.657043   -1.421458
H     -1.181661   -0.258034   -1.871324
H      4.743492   -0.140083   -0.846198
H      3.452012    0.555349   -2.829297
H     -1.202041   -3.338849    2.433846
H     -0.704461   -0.744267    1.982613
