31
Lipophilicity 716 -0.11999999731779099
O     -2.112761    2.827926   -0.204857
C     -3.319725    2.169148    0.013206
O     -4.372543    2.848420    0.155336
C     -3.381530    0.687019    0.038490
C     -4.598419    0.051455   -0.275572
C     -4.686006   -1.341011   -0.318304
C     -3.564760   -2.120774   -0.042456
C     -2.353332   -1.511352    0.284990
C     -2.243979   -0.109656    0.328135
N     -1.011160    0.488898    0.762071
C      0.274439    0.082699    0.271086
O      0.356014   -0.710278   -0.706613
N      1.462830    0.638202    0.854531
C      2.792168    0.156963    0.591451
C      3.867071    1.060037    0.609657
C      5.171688    0.612831    0.378747
C      5.415770   -0.742345    0.142887
C      4.356519   -1.653355    0.145759
C      3.050059   -1.210060    0.375316
H     -2.069347    3.839574   -0.233666
H     -5.481805    0.633422   -0.508151
H     -5.626012   -1.816213   -0.567756
H     -3.637440   -3.200415   -0.068883
H     -1.504714   -2.135057    0.535618
H     -1.051871    1.260933    1.464663
H      1.358245    1.494697    1.444223
H      3.691018    2.112563    0.793267
H      5.993699    1.316939    0.384960
H      6.426288   -1.087686   -0.033382
H      4.548816   -2.705407   -0.020926
H      2.250780   -1.938118    0.409356
