31
Lipophilicity 217 -0.3700000047683716
C      1.963659    1.369550   -2.308471
C      0.891292    0.930804   -1.310893
C      1.378036    1.032072    0.151702
C      0.280724    1.057017    1.257382
C     -1.115425    0.469224    0.895545
C     -1.131611   -0.920423    0.291613
C     -0.622385   -2.079114    0.849347
N     -0.931471   -3.131978    0.066003
C     -1.640351   -2.600771   -0.949959
N     -1.789516   -1.267271   -0.834833
C     -2.587527   -0.415485   -1.713274
C      0.926795    0.324709    2.456385
O      1.941234   -0.489431    1.894242
C      2.218209   -0.109446    0.598563
O      3.128663   -0.645883   -0.085603
H      2.269835    2.419077   -2.111959
H      1.554814    1.310696   -3.339266
H      2.854081    0.710991   -2.249218
H      0.018792    1.602335   -1.451731
H      0.591125   -0.108480   -1.557274
H      1.987408    1.956934    0.265017
H      0.106778    2.116606    1.552677
H     -1.747156    0.452504    1.809472
H     -1.614831    1.180478    0.206655
H     -0.089230   -2.174741    1.782125
H     -2.063678   -3.190864   -1.752714
H     -3.007638   -1.007415   -2.554291
H     -1.956539    0.391710   -2.136507
H     -3.426939    0.031326   -1.140317
H      1.402488    1.066030    3.134775
H      0.210362   -0.280762    3.049596
