30
Lipophilicity 1538 -0.699999988079071
O     -3.025857    2.968671   -0.674433
C     -1.946305    2.672355    0.152831
O     -1.447082    3.582314    0.868500
C     -1.340053    1.320996    0.146255
C      0.061189    1.227321    0.176981
C      0.693362   -0.023622    0.096932
N     -0.068037   -1.143612   -0.019832
C     -1.424970   -1.107242   -0.032769
C     -2.142301   -2.305056   -0.130182
C     -3.537211   -2.291960   -0.103507
C     -4.222203   -1.084219    0.033468
C     -3.517990    0.119877    0.127120
C     -2.107196    0.130785    0.069629
C      2.173271   -0.151786    0.106650
C      2.787709   -1.226554   -0.564019
C      4.178950   -1.365509   -0.557888
C      4.972662   -0.440487    0.123007
C      4.376464    0.623166    0.803211
C      2.985608    0.768140    0.799982
H     -3.431126    3.896951   -0.688434
H      0.653512    2.133216    0.209573
H     -1.618703   -3.249298   -0.216861
H     -4.088126   -3.220945   -0.174257
H     -5.303856   -1.081123    0.075723
H     -4.089409    1.024420    0.271551
H      2.193066   -1.953009   -1.103983
H      4.641857   -2.191565   -1.082220
H      6.049377   -0.550706    0.127757
H      4.992383    1.333270    1.339886
H      2.551016    1.585210    1.360290
