28
Lipophilicity 1747 -0.20000000298023224
C     -2.723725   -1.321892   -0.077339
C     -2.065588    0.019083    0.307097
C     -2.756096    1.171874   -0.450151
C     -2.269554    0.243101    1.823269
C     -0.578040   -0.014660   -0.047768
C     -0.153863   -0.209943   -1.390917
C      1.217473   -0.235218   -1.679075
O      1.666061   -0.424506   -2.984179
N      2.082278   -0.070030   -0.649220
N      3.399549   -0.057630   -0.680788
C      3.756401    0.140203    0.611521
N      5.113781    0.221516    1.037319
N      2.704716    0.254258    1.465847
C      1.680065    0.112652    0.607702
N      0.366095    0.144329    0.933729
H     -2.675887   -1.496059   -1.172954
H     -3.795070   -1.332256    0.218987
H     -2.211357   -2.165892    0.433370
H     -2.267240    2.141044   -0.210543
H     -2.708573    1.019198   -1.548979
H     -3.828463    1.241256   -0.165708
H     -1.797873   -0.575915    2.408692
H     -3.351622    0.267005    2.077207
H     -1.821065    1.209212    2.141817
H     -0.867667   -0.339182   -2.193486
H      2.654246   -0.444680   -3.204927
H      5.889531    0.128082    0.344990
H      5.341485    0.375047    2.044488
