41
Lipophilicity 1839 -0.8700000047683716
C      2.004079    2.761873    1.087637
C      2.180368    2.154515   -0.301861
N      2.352759    0.689425   -0.214723
C      3.637281    0.216280   -0.200810
C      3.921486   -1.154390   -0.135157
C      5.340830   -1.603792   -0.136142
O      5.633325   -2.828185   -0.068587
O      6.370892   -0.669089   -0.211644
C      2.848197   -2.060240   -0.070752
O      3.068543   -3.302526   -0.020255
C      1.525796   -1.582522   -0.056797
C      0.440971   -2.477262    0.022765
C     -0.869527   -2.006979    0.055381
F     -1.894077   -2.895477    0.104629
C     -1.125921   -0.633064    0.016610
C     -0.055566    0.268714   -0.071614
C      1.285969   -0.183963   -0.118730
N     -2.480428   -0.150868    0.063574
C     -2.932258    0.865810   -0.890305
C     -4.423459    0.672059   -1.188983
N     -5.211749    0.601166    0.049608
C     -4.759728   -0.512055    0.896373
C     -3.281810   -0.359495    1.272647
H      2.904375    2.559639    1.705662
H      1.869642    3.860478    1.000184
H      1.115693    2.333320    1.595654
H      3.065716    2.629888   -0.780617
H      1.331691    2.423409   -0.963921
H      4.463149    0.917391   -0.245200
H      7.340785   -0.961709   -0.212898
H      0.602984   -3.547754    0.059180
H     -0.297687    1.319560   -0.075283
H     -2.361156    0.786315   -1.841341
H     -2.764748    1.877089   -0.460082
H     -4.786309    1.522034   -1.805995
H     -4.569689   -0.258159   -1.781378
H     -5.097696    1.498836    0.577568
H     -4.913664   -1.476739    0.364121
H     -5.372277   -0.539448    1.823111
H     -3.156382    0.513850    1.948799
H     -2.950400   -1.267937    1.820055
