47
Lipophilicity 29 -0.47999998927116394
O     -2.014510   -3.569021   -1.043806
C     -2.334538   -2.257281   -0.649418
C     -3.489508   -2.318521    0.376483
C     -3.873216   -0.892360    0.821743
C     -4.327878   -0.071063   -0.400607
C     -3.176262    0.005417   -1.422113
C     -2.793129   -1.421206   -1.874141
C     -1.951377    0.689440   -0.773910
C     -1.466675   -0.127657    0.460572
C     -2.650242   -0.212899    1.469373
C     -1.104577   -1.575574    0.008614
N     -0.335794    0.558816    1.135580
C      0.951936    0.515555    0.420589
C      1.912235    1.525709    0.991982
O      1.492627    2.390147    1.810020
N      3.293631    1.551629    0.583311
C      4.207315    2.604936    0.996584
C      5.542476    2.275478    0.341614
C      5.219805    1.286720   -0.775114
C      3.894533    0.636509   -0.378296
C      4.121751   -0.675262    0.250346
N      4.299352   -1.706305    0.744890
H     -1.279948   -3.514518   -1.709901
H     -3.182872   -2.919638    1.261109
H     -4.373674   -2.821845   -0.073891
H     -4.702358   -0.945617    1.560512
H     -4.623614    0.953058   -0.082976
H     -5.219867   -0.544479   -0.866848
H     -3.505708    0.596305   -2.304450
H     -1.978630   -1.366207   -2.629925
H     -3.665294   -1.908726   -2.363273
H     -2.217709    1.724345   -0.464681
H     -1.157817    0.771717   -1.544213
H     -2.347777   -0.791144    2.370771
H     -2.930044    0.807136    1.815243
H     -0.276139   -1.555236   -0.732008
H     -0.760826   -2.172887    0.882008
H     -0.178550    0.115693    2.072482
H      0.827160    0.750070   -0.653643
H      1.399165   -0.496376    0.518032
H      4.305831    2.620212    2.103717
H      3.832099    3.587404    0.635891
H      6.037724    3.188226   -0.055088
H      6.212115    1.788093    1.084103
H      5.079449    1.848675   -1.724975
H      6.044798    0.553696   -0.920208
H      3.244533    0.518834   -1.272085
