28
Lipophilicity 1517 -0.9800000190734863
N      2.645892    0.564199   -0.611892
C      1.244133    0.273434   -0.291929
C      1.118066   -1.096346    0.431694
C     -0.364755   -1.381470    0.758548
C     -0.912981   -0.266152    1.676053
C     -0.802627    1.097255    0.958204
C     -1.621385    1.057278   -0.350595
C     -1.072245   -0.055182   -1.270268
C     -1.182491   -1.418123   -0.551516
C      0.409229    0.234559   -1.599215
C      0.678822    1.386890    0.629053
H      3.028280   -0.202609   -1.212538
H      3.207756    0.564529    0.270886
H      1.712891   -1.091235    1.371820
H      1.521375   -1.909847   -0.211140
H     -0.448778   -2.361929    1.275752
H     -0.339573   -0.241588    2.628766
H     -1.974663   -0.474493    1.933906
H     -1.199354    1.897927    1.619558
H     -2.693253    0.867088   -0.122555
H     -1.561890    2.040861   -0.866447
H     -1.662885   -0.083355   -2.211653
H     -2.248260   -1.643937   -0.327450
H     -0.804388   -2.228351   -1.213052
H      0.799405   -0.553020   -2.281408
H      0.491997    1.206216   -2.134904
H      0.765968    2.377254    0.129538
H      1.265712    1.440144    1.572784
