27
Lipophilicity 1926 -1.1699999570846558
N      2.873467    1.932573    0.886442
C      1.880312    0.870382    0.717331
C      1.289788    0.931843   -0.701852
C      0.151982   -0.034245   -0.871340
C      0.222488   -1.310963   -1.421049
N     -0.981420   -1.923312   -1.347883
C     -1.807398   -1.048731   -0.747464
C     -3.153104   -1.235437   -0.434147
C     -3.828269   -0.186472    0.216701
C     -3.150211    1.010307    0.538979
C     -1.791194    1.169940    0.212206
C     -1.150408    0.114410   -0.436943
C      2.495626   -0.477429    0.997295
O      2.057138   -1.185811    1.942749
O      3.545535   -0.944273    0.211416
H      3.691597    1.750306    0.259639
H      3.223412    1.910447    1.872329
H      1.057191    1.051899    1.445245
H      2.078099    0.715161   -1.455797
H      0.916705    1.959822   -0.900527
H      1.109119   -1.769839   -1.838927
H     -1.214065   -2.885990   -1.678894
H     -3.662646   -2.158024   -0.680356
H     -4.873351   -0.298497    0.474404
H     -3.679131    1.809310    1.041950
H     -1.264600    2.082654    0.458891
H      3.963339   -1.850030    0.387550
