33
Lipophilicity 1290 -0.11999999731779099
C     -2.880806    0.237622   -2.858391
C     -3.275294   -0.284135   -1.470559
C     -4.140538    0.697473   -0.726444
O     -3.905470    1.935420   -0.780193
O     -5.181456    0.227600    0.068462
C     -2.052989   -0.648338   -0.651374
C     -1.840613   -1.981447   -0.261723
C     -0.719477   -2.327013    0.494817
C      0.206551   -1.350880    0.866152
C      0.025877   -0.013731    0.473452
C     -1.113648    0.331114   -0.273930
C      0.992864    1.036136    0.876774
O      0.564548    2.199290    1.111699
C      2.445219    0.767622    1.013445
C      3.091782   -0.164870    0.180250
C      4.465009   -0.394859    0.308414
C      5.207799    0.308703    1.259297
C      4.579755    1.248270    2.080160
C      3.206707    1.482248    1.955745
H     -2.280946   -0.528871   -3.394242
H     -2.281821    1.170135   -2.785439
H     -3.792308    0.447495   -3.458093
H     -3.891322   -1.195203   -1.640829
H     -5.765335    0.868554    0.592316
H     -2.545220   -2.755803   -0.538323
H     -0.570544   -3.354945    0.799451
H      1.055911   -1.639326    1.472482
H     -1.264216    1.361258   -0.571978
H      2.539970   -0.704054   -0.579322
H      4.954621   -1.114925   -0.334475
H      6.270864    0.129909    1.356231
H      5.157212    1.796607    2.813241
H      2.737313    2.212945    2.602928
