23
Lipophilicity 419 -0.5799999833106995
C      3.416502    0.267042    0.411768
C      1.952305   -0.045914    0.469372
N      1.493429   -0.884763    1.431711
C      0.179408   -1.190558    1.554591
C     -0.768206   -0.643984    0.677311
C     -2.218003   -1.022785    0.881555
O     -2.503662   -2.224427    0.219152
C     -0.320392    0.197202   -0.377657
C     -1.283368    0.769064   -1.399923
O     -1.585471    2.101618   -1.090036
C      1.056934    0.529858   -0.446096
O      1.560701    1.425823   -1.395959
H      3.821619   -0.005414   -0.585550
H      3.969895   -0.305569    1.186243
H      3.576056    1.351220    0.590404
H     -0.128745   -1.861265    2.346782
H     -2.414741   -1.169239    1.965335
H     -2.914199   -0.215728    0.567504
H     -2.616398   -2.004247   -0.741313
H     -2.215189    0.176407   -1.498752
H     -0.830100    0.725043   -2.411567
H     -2.210406    2.077550   -0.319143
H      0.982033    1.953064   -2.035732
