53
Lipophilicity 473 -0.8500000238418579
N      8.816807    0.341280   -0.371901
C      8.141130    0.987625    0.750523
C      6.672240    0.648231    0.766133
C      5.754781    1.441212    0.060556
C      4.396807    1.108997    0.048456
C      3.939807   -0.037304    0.722699
N      2.545608   -0.387452    0.748646
C      1.661344   -0.245071   -0.379422
O      2.119359    0.119169   -1.496900
C      0.210876   -0.527273   -0.257328
C     -0.702364    0.177494   -1.055685
C     -2.083218   -0.061367   -0.967095
N     -2.979891    0.656748   -1.832508
C     -2.942219    2.081149   -1.992207
N     -2.162793    2.851472   -1.183385
C     -2.135013    4.202751   -1.317110
C     -2.918196    4.820844   -2.290521
C     -3.717887    4.020796   -3.105297
N     -3.717731    2.672284   -2.940829
C     -2.563931   -1.045356   -0.071313
C     -3.942160   -1.306642    0.072304
C     -4.404375   -2.288010    0.968938
C     -3.470269   -3.018048    1.721073
C     -2.104676   -2.760442    1.601243
C     -1.641704   -1.774303    0.719080
C     -0.267677   -1.513271    0.618697
C     -5.859074   -2.556249    1.101426
N     -6.643853   -2.313358    0.094828
O     -8.001447   -2.530423    0.154610
N     -6.397269   -3.064530    2.331198
C      4.857922   -0.821079    1.436639
C      6.215825   -0.489722    1.447898
H      8.685474   -0.693768   -0.293465
H      8.363522    0.651961   -1.262249
H      8.279672    2.088258    0.676304
H      8.619379    0.664406    1.700727
H      6.089913    2.321991   -0.473254
H      3.705030    1.761948   -0.466481
H      2.182192   -0.811310    1.630343
H     -0.338278    0.915605   -1.760272
H     -3.702010    0.121244   -2.364917
H     -1.506504    4.796013   -0.666541
H     -2.907908    5.896551   -2.409032
H     -4.340070    4.470846   -3.867306
H     -4.667287   -0.734342   -0.490786
H     -3.789096   -3.804310    2.392474
H     -1.408278   -3.336005    2.199837
H      0.425178   -2.103336    1.205043
H     -8.581805   -2.329555   -0.649754
H     -5.815946   -3.112154    3.196387
H     -7.401892   -3.335898    2.413588
H      4.520860   -1.698841    1.973796
H      6.911094   -1.119458    1.989190
