38
Lipophilicity 987 -1.4199999570846558
C     -2.923111    2.394109    0.642512
C     -1.899715    1.286378    0.390765
C     -2.338365   -0.088658    0.951080
C     -3.462356   -0.753409    0.123253
O     -4.686830   -0.117885    0.365674
N     -1.164707   -0.973454    1.110820
C     -0.634564   -1.518619   -0.150600
C      0.798594   -2.032628    0.056803
N      1.755496   -0.938474    0.301789
C      2.206532   -0.273309   -0.943191
C      2.144537    1.271122   -0.827632
C      3.094739    1.864718    0.217298
C      3.622094   -0.756960   -1.307225
O      3.597986   -2.102574   -1.701830
H     -2.484925    3.372136    0.351562
H     -3.834209    2.234124    0.030785
H     -3.197262    2.439068    1.717824
H     -0.950974    1.586018    0.887294
H     -1.704711    1.226855   -0.700898
H     -2.742730    0.085423    1.974472
H     -3.552849   -1.822592    0.419211
H     -3.221506   -0.707110   -0.962596
H     -5.354542   -0.576450   -0.207781
H     -1.433264   -1.776308    1.728098
H     -1.266618   -2.368904   -0.490352
H     -0.633175   -0.755612   -0.954835
H      1.106898   -2.636541   -0.824662
H      0.814483   -2.720248    0.929486
H      1.331762   -0.261511    0.977919
H      1.543590   -0.535130   -1.799922
H      2.381024    1.722125   -1.816123
H      1.104409    1.571966   -0.578277
H      2.898595    2.953347    0.313527
H      2.946201    1.395285    1.211298
H      4.151308    1.734973   -0.096407
H      4.011300   -0.157743   -2.158045
H      4.318870   -0.617450   -0.448821
H      3.657996   -2.646079   -0.873224
