38
Lipophilicity 1844 -0.11999999731779099
C      5.142873    0.798294    0.449756
C      4.197531   -0.098633   -0.367487
C      4.893793   -1.413665   -0.724285
N      2.953134   -0.397953    0.364605
C      2.059378    0.767492    0.458364
C      0.615099    0.335601    0.768447
O      0.530395   -0.272174    2.034384
C      0.035366   -0.575421   -0.332631
O     -1.318924   -0.920980   -0.042087
C     -2.425039   -0.069368   -0.194586
C     -2.346443    1.217795   -0.782697
C     -3.501436    2.021565   -0.906188
C     -4.747527    1.557542   -0.450765
C     -4.799287    0.288108    0.119727
N     -5.879047   -0.339528    0.613526
C     -5.439275   -1.539390    1.056142
C     -4.071562   -1.673413    0.841542
C     -3.681049   -0.494543    0.241518
H      4.680496    1.791233    0.626802
H      6.090028    0.962927   -0.107013
H      5.381212    0.330203    1.428738
H      3.961507    0.413721   -1.327369
H      5.179586   -1.966750    0.196238
H      4.210490   -2.050716   -1.325448
H      5.806846   -1.216604   -1.325911
H      3.191308   -0.721050    1.332299
H      2.049578    1.338756   -0.497014
H      2.408457    1.453096    1.262170
H      0.003935    1.261768    0.807491
H      0.942784   -1.172653    1.971197
H      0.107857   -0.094338   -1.331371
H      0.625239   -1.515047   -0.383950
H     -1.408398    1.608704   -1.149666
H     -3.427149    3.002878   -1.356546
H     -5.636896    2.167570   -0.542094
H     -6.858338    0.021205    0.650642
H     -6.076937   -2.284086    1.513835
H     -3.449587   -2.522145    1.093703
