21
Lipophilicity 1682 -0.4000000059604645
C      0.539972    0.255812   -0.058038
C      1.230598   -0.883347    0.095378
C      2.681963   -0.883781    0.338034
N      3.411591   -2.005180    0.497357
N      4.649587   -1.579813    0.690170
N      4.665070   -0.258811    0.648771
N      3.452323    0.218271    0.430142
C     -0.925283    0.334528   -0.305625
C     -1.506877    1.608416   -0.445186
C     -2.878191    1.745896   -0.679038
C     -3.688599    0.614284   -0.776929
C     -3.129016   -0.657036   -0.641122
C     -1.757596   -0.802240   -0.407006
H      1.079514    1.194450    0.000913
H      0.747590   -1.846628    0.046694
H      5.519290    0.327893    0.772057
H     -0.898232    2.501740   -0.373063
H     -3.312446    2.731763   -0.784368
H     -4.750228    0.722344   -0.957985
H     -3.759519   -1.533647   -0.717434
H     -1.371512   -1.804912   -0.309188
