47
Lipophilicity 152 -0.009999999776482582
C      5.977499   -1.669630    1.658880
C      5.952757   -1.126877    0.220437
C      6.432552    0.328706    0.158360
N      4.641911   -1.294253   -0.441782
C      3.502725   -0.744851    0.310059
C      2.263098   -0.713094   -0.587250
C      1.060063   -0.126279    0.147808
O     -0.068385   -0.130275   -0.721982
C     -1.350478    0.324599   -0.373046
C     -1.623324    0.864906    0.898058
C     -2.907916    1.305653    1.221478
C     -3.945284    1.224345    0.279973
N     -5.283106    1.642995    0.600570
C     -5.595187    2.757002    1.450939
O     -4.703056    3.583998    1.781693
C     -7.007684    2.992497    1.876544
C     -3.683053    0.666374   -0.977866
C     -2.391361    0.232218   -1.320111
C     -2.156216   -0.373811   -2.682609
C     -2.588570   -1.813420   -2.707647
C     -1.875430   -2.773758   -2.111986
H      5.376785   -1.030628    2.340102
H      7.022513   -1.690068    2.035353
H      5.578328   -2.705719    1.683128
H      6.692254   -1.723530   -0.359870
H      7.505204    0.383056    0.442530
H      5.860959    0.977578    0.853626
H      6.325137    0.720565   -0.875407
H      4.475659   -2.319010   -0.581511
H      3.716527    0.290955    0.647038
H      3.287823   -1.377728    1.199832
H      2.018277   -1.746408   -0.917891
H      2.476059   -0.097104   -1.488382
H      1.286486    0.917540    0.457553
H      0.837517   -0.742568    1.046469
H     -0.849838    0.940693    1.649925
H     -3.093592    1.683270    2.218206
H     -6.077678    1.162411    0.120082
H     -7.044049    3.710990    2.722700
H     -7.586699    3.404697    1.024388
H     -7.466357    2.035438    2.201747
H     -4.487727    0.578805   -1.698463
H     -1.091703   -0.291233   -2.991351
H     -2.745411    0.189146   -3.438975
H     -3.500531   -2.079987   -3.233666
H     -0.954197   -2.544154   -1.586113
H     -2.213303   -3.804054   -2.151572
