29
Lipophilicity 547 -0.10000000149011612
C     -1.185812    2.532750    1.267206
C     -0.805593    1.184797    1.871225
N     -0.731393    0.152610    0.822223
C     -1.850121   -0.585866    0.551568
C     -1.855237   -1.571605   -0.449330
C     -3.097969   -2.352036   -0.694845
O     -3.139803   -3.239475   -1.589211
O     -4.238566   -2.108952    0.066860
C     -0.675532   -1.783871   -1.191444
O     -0.640052   -2.662293   -2.097365
C      0.466225   -1.010062   -0.923078
C      1.661372   -1.176770   -1.645348
C      2.770895   -0.383094   -1.356753
C      2.684049    0.578786   -0.346523
C      3.861973    1.438963   -0.017255
N      1.523814    0.725372    0.346807
C      0.417582   -0.032505    0.095986
H     -1.246284    3.298018    2.069361
H     -2.173812    2.460240    0.765155
H     -0.422598    2.850907    0.526022
H     -1.557977    0.907575    2.642842
H      0.164821    1.275652    2.406119
H     -2.754602   -0.406169    1.121523
H     -5.091177   -2.633110   -0.090077
H      1.740547   -1.916064   -2.432962
H      3.689014   -0.515196   -1.915998
H      3.599113    2.175059    0.772006
H      4.697197    0.805530    0.348561
H      4.189923    1.990810   -0.923272
