26
Lipophilicity 713 -0.49000000953674316
C     -1.774370   -2.575250   -1.117425
C     -0.954637   -1.408765   -0.647482
N      0.401082   -1.514439   -0.680692
C      1.211303   -0.500764   -0.278147
N      2.634179   -0.680805   -0.306419
C      3.587447    0.376848   -0.113417
N      3.370786    1.569591   -0.573400
N      4.833124    0.090487    0.521295
N      0.664521    0.650047    0.194838
C     -0.680756    0.819537    0.253139
C     -1.210249    2.021194    0.737182
C     -2.594007    2.202099    0.799546
C     -3.454086    1.184325    0.379748
C     -2.936520   -0.021084   -0.104681
C     -1.542467   -0.216302   -0.172965
H     -2.407283   -2.271067   -1.977416
H     -2.417169   -2.943755   -0.290552
H     -1.116236   -3.407791   -1.445629
H      2.998548   -1.657224   -0.380676
H      2.505834    1.825048   -1.098170
H      5.035896   -0.869143    0.878987
H      5.552338    0.838027    0.642622
H     -0.551120    2.815854    1.064586
H     -3.000711    3.132678    1.173860
H     -4.525506    1.329682    0.430295
H     -3.629942   -0.789025   -0.420856
