60
Lipophilicity 186 -0.8199999928474426
C     -7.764943    2.656138    2.399285
C     -7.095313    2.030197    1.207319
C     -5.907339    1.306170    1.354258
N     -5.304180    0.705229    0.280102
C     -4.035393   -0.031933    0.504525
C     -4.105861   -1.509816    0.037382
C     -3.124021   -1.824946   -1.100698
C     -1.690488   -1.335760   -0.803460
N     -1.632733   -0.121016    0.052855
C     -0.406808    0.665254   -0.195694
C      0.824440   -0.098762    0.225591
C      0.894600   -0.677938    1.501456
C      2.028740   -1.393041    1.890538
C      3.129590   -1.522427    1.022824
C      4.281687   -2.363059    1.433849
O      4.444608   -2.669970    2.645617
O      5.170918   -2.858314    0.484337
C      3.088983   -0.869186   -0.233724
O      4.184461   -0.866007   -1.106034
C      5.418012   -0.257724   -0.822352
C      5.601140    0.589291    0.288334
C      6.854004    1.152462    0.543730
C      7.928309    0.890281   -0.309893
C      7.751820    0.074896   -1.439204
C      8.913858   -0.236043   -2.337848
C      6.496026   -0.504148   -1.681954
C      1.930050   -0.192730   -0.631074
C     -2.834110    0.719963   -0.093468
C     -5.873374    0.835407   -0.965721
O     -5.326723    0.329268   -1.979802
N     -7.044972    1.512850   -1.119750
C     -7.666369    2.102034   -0.067479
O     -8.754465    2.714601   -0.246791
H     -8.067475    3.700070    2.162103
H     -7.084088    2.686187    3.279617
H     -8.667091    2.065368    2.667009
H     -5.469036    1.226314    2.341103
H     -3.828294   -0.083245    1.599388
H     -3.858205   -2.175252    0.892201
H     -5.135080   -1.777634   -0.280472
H     -3.479288   -1.349081   -2.037799
H     -3.110164   -2.921323   -1.284606
H     -1.176062   -1.173829   -1.776839
H     -1.149526   -2.152557   -0.279969
H     -0.350317    0.963254   -1.267331
H     -0.425053    1.602241    0.402587
H      0.058644   -0.596120    2.185745
H      2.034474   -1.863058    2.866751
H      5.953110   -3.441775    0.757091
H      4.782049    0.812388    0.959029
H      6.993763    1.790285    1.407352
H      8.896581    1.324294   -0.093534
H      9.638069    0.605743   -2.348397
H      8.568608   -0.404926   -3.378053
H      9.428547   -1.150418   -1.973819
H      6.355097   -1.157634   -2.535783
H      1.905499    0.283329   -1.604986
H     -2.999797    0.976018   -1.162864
H     -2.717444    1.673052    0.469102
H     -7.471674    1.587085   -2.071788
