22
Lipophilicity 875 -0.44999998807907104
N      4.301596    0.818630    0.029638
C      2.922291    0.458560    0.038925
N      2.507708   -0.626744    0.748043
C      1.199312   -0.998289    0.778619
N      0.811172   -2.146014    1.538037
C      0.258427   -0.245847    0.062556
N     -1.063788   -0.563435    0.051847
C     -1.960281    0.176816   -0.655863
C     -3.415873   -0.180143   -0.620015
O     -4.089964    0.637279    0.296764
C     -1.511727    1.298901   -1.369201
N     -0.190086    1.618063   -1.359153
C      0.705179    0.871408   -0.662470
N      2.021767    1.200267   -0.660167
H      4.998837    0.254322    0.564091
H      4.627328    1.649953   -0.511689
H     -0.183540   -2.460074    1.584153
H      1.529438   -2.691888    2.063724
H     -3.544898   -1.253424   -0.351629
H     -3.861363   -0.034430   -1.627033
H     -3.854943    0.302483    1.201687
H     -2.206591    1.913605   -1.926794
