21
Lipophilicity 1784 -1.0800000429153442
O      4.467559    0.280238    0.185345
C      3.337351    1.050652   -0.075674
O      3.469976    2.283344   -0.305200
C      1.996157    0.427790   -0.083101
C      1.852991   -0.963097    0.175990
C      0.583137   -1.569492    0.170965
C     -0.516560   -0.760010   -0.092737
N     -1.807585   -1.106184   -0.157873
C     -2.441557    0.058402   -0.443380
N     -1.600534    1.119217   -0.577076
C     -0.393967    0.572313   -0.342810
C      0.844413    1.208575   -0.349114
C     -3.917197    0.152251   -0.669433
F     -4.333115    1.467163   -0.563669
F     -4.584791   -0.608085    0.272943
F     -4.218130   -0.319749   -1.932926
H      5.390915    0.696917    0.192885
H      2.720365   -1.577779    0.380269
H      0.467355   -2.627933    0.365170
H     -2.226234   -2.054407   -0.028821
H      0.909451    2.269874   -0.553935
