27
Lipophilicity 36 -1.4199999570846558
N      3.089075   -0.337083   -2.399476
C      2.588221   -0.345903   -1.064969
N      3.219415   -1.095586   -0.102554
C      2.764459   -1.129017    1.185991
O      3.407011   -1.894574    2.153033
C      1.641315   -0.376432    1.493291
N      0.990103   -0.251831    2.665233
C     -0.031524    0.592949    2.350553
N     -0.023922    0.984526    1.050724
C     -0.996665    1.840231    0.374644
O     -2.249807    1.190892    0.298459
C     -2.273978    0.305733   -0.802651
C     -3.583210   -0.478137   -0.795541
O     -3.651586   -1.310589    0.330837
C      1.037047    0.356400    0.531660
N      1.479237    0.391250   -0.748744
H      3.934023   -0.896730   -2.650476
H      2.615207    0.228780   -3.138022
H      4.226556   -2.442309    1.920049
H     -0.778498    0.911006    3.066390
H     -1.124960    2.767815    0.971141
H     -0.617471    2.163511   -0.623254
H     -1.431415   -0.421432   -0.759115
H     -2.216708    0.876754   -1.756833
H     -4.450542    0.220634   -0.823727
H     -3.628682   -1.112027   -1.706336
H     -3.932701   -0.738834    1.092185
