43
Lipophilicity 1022 -1.2999999523162842
C      6.664718   -0.135727    0.475544
C      5.188080   -0.532579    0.337709
C      4.404573   -0.094988    1.587210
C      4.589322    0.010159   -0.988039
N      4.598176    1.477188   -1.026682
C      3.207603   -0.542039   -1.240636
O      3.081161   -1.648265   -1.833925
O      2.080378    0.143975   -0.776825
C      0.756348   -0.350970   -0.943066
C     -0.233581    0.625695   -0.315800
O     -1.560470    0.188210   -0.540734
C     -2.049250   -0.513752    0.582999
N     -3.364662   -1.060042    0.267933
C     -3.668748   -2.339083   -0.071344
N     -4.982574   -2.516593   -0.383460
C     -5.492086   -1.279139   -0.232996
C     -6.788961   -0.830576   -0.434181
O     -7.706854   -1.614863   -0.790540
N     -7.043670    0.496148   -0.236407
C     -6.052178    1.366343    0.145611
N     -6.360084    2.746566    0.338004
N     -4.773107    0.912434    0.338677
C     -4.529216   -0.408964    0.147735
H      7.243303   -0.493361   -0.402738
H      7.102406   -0.598780    1.385719
H      6.771858    0.967512    0.551362
H      5.152539   -1.644592    0.295912
H      4.459697    1.004297    1.731740
H      3.340594   -0.400909    1.513183
H      4.830715   -0.584023    2.489127
H      5.239474   -0.350624   -1.817526
H      3.887432    1.861982   -0.363745
H      4.319086    1.785302   -1.986805
H      0.667671   -1.343469   -0.451209
H      0.532570   -0.460577   -2.026678
H      0.012751    0.781514    0.761988
H     -0.111325    1.612120   -0.811552
H     -1.366838   -1.348754    0.862895
H     -2.144849    0.170294    1.456118
H     -2.940753   -3.139557   -0.102111
H     -7.333291    3.094834    0.190656
H     -5.618937    3.422647    0.627405
H     -4.009019    1.565005    0.623492
