24
Lipophilicity 1396 -1.2000000476837158
F      2.148689    0.341752   -2.910433
C      2.467959    0.283629   -1.594114
N      3.678911    0.741460   -1.177449
C      4.045638    0.705564    0.130485
C      3.171470    0.187638    1.086545
C      1.922196   -0.289409    0.685676
C      1.553771   -0.242169   -0.672055
O      0.314521   -0.705347   -1.144397
C     -0.761840   -1.169896   -0.329683
C     -1.463137    0.007804    0.362240
C     -2.733200   -0.389354    1.097198
C     -3.433988    0.481422    0.073245
N     -2.186191    0.834957   -0.605907
H      5.016782    1.078150    0.427711
H      3.460160    0.154920    2.129208
H      1.258247   -0.691916    1.437144
H     -1.486312   -1.699834   -0.985213
H     -0.396659   -1.905860    0.417636
H     -0.777060    0.608205    1.002877
H     -2.785362    0.030323    2.125137
H     -3.006080   -1.464102    1.009227
H     -4.098866   -0.104207   -0.598607
H     -3.936426    1.364896    0.530025
H     -1.973221    1.841377   -0.406434
