46
Lipophilicity 1307 -0.44999998807907104
C     -3.796694   -2.517057    1.002397
C     -2.667720   -1.872934    0.170150
C     -1.320992   -2.268787    0.800925
O     -0.262981   -1.559368    0.180960
C     -0.380917   -0.195373   -0.066577
C      0.771661    0.577497   -0.285177
N      2.077449   -0.022592   -0.254639
C      2.525360   -0.775548    0.919513
C      4.020200   -0.537415    1.142992
N      4.773085   -0.824743   -0.094455
C      6.214758   -0.664363    0.148194
C      4.342501    0.079677   -1.179527
C      2.858847   -0.132735   -1.488341
C      0.647182    1.952919   -0.510017
F      1.752577    2.718401   -0.693488
C     -0.611028    2.553373   -0.522396
C     -1.774663    1.784506   -0.329890
C     -3.047857    2.373444   -0.381896
O     -3.157604    3.619180   -0.554238
C     -4.194685    1.571000   -0.255496
C     -4.030433    0.188116   -0.068740
N     -2.790570   -0.389040    0.052087
C     -1.663401    0.390979   -0.102662
C     -5.567417    2.144282   -0.336090
O     -6.576249    1.401168   -0.192648
O     -5.762914    3.503264   -0.569039
H     -3.962330   -1.946650    1.941374
H     -3.540790   -3.565988    1.266246
H     -4.740051   -2.565787    0.420455
H     -2.702639   -2.306906   -0.853627
H     -1.141801   -3.359094    0.685040
H     -1.322865   -2.023622    1.886073
H      1.965512   -0.454416    1.825380
H      2.344436   -1.859808    0.754733
H      4.181192    0.515739    1.470135
H      4.359677   -1.210829    1.960899
H      6.549473   -1.367371    0.941128
H      6.459800    0.376073    0.458914
H      6.787098   -0.911815   -0.771694
H      4.922591   -0.132088   -2.104892
H      4.511701    1.144938   -0.899102
H      2.709578   -1.143811   -1.925370
H      2.529047    0.621293   -2.235965
H     -0.671098    3.620922   -0.696142
H     -4.919839   -0.422234   -0.031876
H     -6.696184    3.893603   -0.623607
