30
Lipophilicity 1434 -0.5099999904632568
C     -4.920900    1.635540   -0.668028
O     -3.511247    1.835994   -0.680355
C     -2.567953    0.850721   -0.352455
C     -2.939423   -0.453098    0.026449
C     -1.964869   -1.403639    0.344985
C     -0.599425   -1.066367    0.290083
C      0.432002   -1.979116    0.599207
C      0.153038   -3.394435    1.014739
N      1.726973   -1.570549    0.520499
C      2.062063   -0.306116    0.152182
N      3.449402    0.063636    0.088265
C      3.948651    1.360460   -0.284198
N      3.136945    2.320027   -0.599887
N      5.360255    1.589306   -0.305003
N      1.081820    0.585734   -0.148925
C     -0.229793    0.241482   -0.090097
C     -1.210955    1.186874   -0.407311
H     -5.423659    2.577664   -0.968007
H     -5.258757    1.361972    0.353854
H     -5.199563    0.838509   -1.389361
H     -3.980066   -0.742766    0.078087
H     -2.288696   -2.395387    0.631795
H     -0.452261   -3.403347    1.945457
H      1.101866   -3.938030    1.210228
H     -0.393176   -3.925394    0.207004
H      4.151029   -0.671139    0.332731
H      3.483154    3.266949   -0.872476
H      6.024236    0.824236   -0.052729
H      5.749352    2.521118   -0.571610
H     -0.920041    2.189159   -0.698406
