54
Lipophilicity 463 -0.5400000214576721
C      2.546932    0.271924    2.632706
C      2.332817   -0.963327    1.732624
C      3.540621   -1.906425    1.775861
N      1.879297   -0.645289    0.345725
C      0.528311   -0.040699    0.296438
C     -0.340298   -0.798666   -0.728355
C     -1.825683   -0.305199   -0.833146
C     -2.575737   -1.186656   -1.835009
O     -3.754186   -1.568951   -1.588872
N     -2.012150   -1.502913   -3.111542
C     -2.450086   -0.445732    0.578750
C     -2.605706    0.663143    1.446404
C     -3.088242    0.493949    2.748277
C     -3.389509   -0.781975    3.225592
C     -3.192994   -1.894195    2.408564
C     -2.716874   -1.732297    1.104561
C     -1.982202    1.119259   -1.386555
C     -0.968154    1.792004   -2.102904
C     -1.226127    3.051776   -2.649273
C     -2.487593    3.628489   -2.509676
C     -3.483756    2.929126   -1.831727
N     -3.215133    1.705817   -1.304938
C      2.814328   -0.086110   -0.679167
C      3.628440   -1.195034   -1.361667
C      3.711744    1.057207   -0.184224
H      3.557554    0.706402    2.510048
H      1.789780    1.060065    2.439399
H      2.457596   -0.032496    3.695867
H      1.513979   -1.550767    2.211790
H      3.670497   -2.289657    2.813476
H      3.373402   -2.777681    1.105527
H      4.479793   -1.385196    1.498668
H      0.591267    1.038672    0.046420
H      0.034649   -0.098976    1.289083
H      0.164974   -0.771851   -1.711962
H     -0.340000   -1.872656   -0.436891
H     -1.159514   -1.022430   -3.470670
H     -2.498736   -2.175785   -3.737908
H     -2.329183    1.662295    1.140029
H     -3.211398    1.354306    3.394616
H     -3.756363   -0.909077    4.237484
H     -3.396047   -2.886828    2.787693
H     -2.541188   -2.619223    0.507246
H      0.009219    1.364633   -2.260628
H     -0.449750    3.578201   -3.189116
H     -2.694564    4.600875   -2.936039
H     -4.474299    3.353734   -1.729573
H      2.214033    0.359628   -1.503804
H      4.031873   -0.822593   -2.326620
H      4.493406   -1.519594   -0.746955
H      2.978194   -2.067647   -1.576384
H      3.102503    1.826240    0.341153
H      4.197290    1.550603   -1.051849
H      4.522976    0.687577    0.471450
