43
Lipophilicity 518 -0.05999999865889549
C     -0.344526    3.030470    0.210647
C     -1.508550    2.314845   -0.472891
O     -1.026832    1.315024   -1.335764
C     -2.093667    0.407786   -1.500562
C     -2.985262    0.460497   -0.252048
O     -4.327729    0.664820   -0.613487
C     -2.435297    1.640924    0.529544
O     -3.439595    2.528473    0.950053
N     -1.582675   -0.947421   -1.715488
C     -2.167244   -1.931436   -2.446809
N     -1.525720   -3.129010   -2.354176
C     -0.508193   -2.856000   -1.516064
C      0.475149   -3.701144   -1.016269
N      0.545877   -5.077213   -1.389798
N      1.380816   -3.170781   -0.141206
C      1.327683   -1.852968    0.237443
O      2.285015   -1.361118    1.129594
C      2.371407    0.015842    1.494407
C      2.939839    0.849902    0.384739
C      3.682282    1.936002    1.135228
O      4.005754    1.474700    2.428555
C      3.379181    0.224381    2.605877
N      0.346280   -1.033903   -0.257152
C     -0.545882   -1.561063   -1.129109
H     -0.728532    3.847249    0.857958
H      0.238788    2.323083    0.834282
H      0.328653    3.470739   -0.555030
H     -2.074595    3.063170   -1.075555
H     -2.671535    0.720425   -2.400928
H     -2.892346   -0.464186    0.365885
H     -4.658683   -0.203108   -0.963922
H     -1.853000    1.266523    1.405664
H     -3.886131    2.099053    1.725739
H     -3.067592   -1.787714   -3.030256
H      1.294626   -5.689445   -0.996543
H     -0.142868   -5.489370   -2.057788
H      1.377799    0.402964    1.814702
H      3.658184    0.254067   -0.221842
H      2.147749    1.265153   -0.274182
H      3.038254    2.837595    1.227230
H      4.610511    2.217542    0.593822
H      4.157358   -0.570018    2.581214
H      2.875251    0.194669    3.595405
