42
Lipophilicity 1469 -0.27000001072883606
C     -4.727001   -0.773543   -0.906499
C     -3.532634   -0.572451    0.051254
C     -3.911857   -1.164018    1.426296
C     -2.283719   -1.332283   -0.501489
C     -1.417637   -0.438000   -1.396727
C     -0.839535    0.765619   -0.609511
C     -1.784012    1.249061    0.519379
C     -3.254755    0.958281    0.196844
N      0.472073    0.430047   -0.043210
C      1.388862    1.439143    0.410818
O      1.101505    2.659653    0.275140
C      2.701209    1.061148    1.057383
N      2.475657    0.322142    2.302698
C      3.578000    0.246312    0.087605
C      4.991380    0.031727    0.642825
C      5.826332   -0.733654   -0.334313
O      5.852162   -1.992852   -0.293068
O      6.539460   -0.054829   -1.317335
H     -4.480644   -0.406935   -1.925919
H     -4.996482   -1.849328   -0.981936
H     -5.617691   -0.217070   -0.542129
H     -4.092148   -2.257842    1.344014
H     -4.836070   -0.688287    1.820099
H     -3.097837   -1.000885    2.164405
H     -1.642546   -1.693386    0.333789
H     -2.589793   -2.236694   -1.071996
H     -0.598638   -1.038778   -1.849078
H     -2.038805   -0.064059   -2.239916
H     -0.707054    1.592884   -1.342517
H     -1.651603    2.342409    0.669306
H     -1.522733    0.750406    1.478640
H     -3.502456    1.492659   -0.747882
H     -3.899594    1.404195    0.985858
H      0.744472   -0.574390    0.048812
H      3.247688    1.999151    1.306322
H      1.901281    0.915110    2.945524
H      1.929098   -0.547553    2.106340
H      3.652255    0.792835   -0.879360
H      3.109269   -0.742454   -0.111119
H      5.473772    1.013936    0.837831
H      4.944368   -0.528168    1.602096
H      7.096401   -0.559257   -1.996700
