17
Lipophilicity 68 -0.5699999928474426
N      3.411800    0.183506    0.373963
N      2.022543    0.297462    0.527714
C      1.139513   -0.367582   -0.384330
O      1.625429   -1.119005   -1.273405
C     -0.331801   -0.201510   -0.293836
C     -1.185037   -1.171000   -0.848503
C     -2.569621   -1.006125   -0.764472
N     -3.090466    0.091564   -0.156583
C     -2.293746    1.052186    0.380497
C     -0.903410    0.927025    0.319962
H      3.816611    1.137015    0.512616
H      3.759296   -0.413635    1.158134
H      1.646563    0.758356    1.386565
H     -0.786140   -2.053446   -1.333311
H     -3.230926   -1.752605   -1.183786
H     -2.739798    1.918792    0.850039
H     -0.290809    1.719003    0.728737
