66
Lipophilicity 1381 -0.7599999904632568
C     -4.791865   -1.009962   -1.613070
C     -4.912769    0.442174   -2.080995
C     -4.992953    1.434990   -0.901730
C     -5.626601    2.758820   -1.353933
C     -3.630801    1.663543   -0.291715
O     -2.940270    2.664825   -0.627812
O     -3.141893    0.740663    0.638207
C     -1.898750    0.864832    1.339104
C     -2.096526    0.359462    2.776022
C     -2.523070   -1.124414    2.808792
O     -2.233533   -1.659301    4.073926
C     -1.875649   -1.975334    1.733126
C     -1.202326   -1.457070    0.691854
C     -0.838577   -2.324765   -0.443978
C     -0.640189   -1.798018   -1.651796
C     -0.873423   -0.328228   -1.885693
C     -0.381659    0.109610   -3.271497
C     -0.313712    0.533785   -0.715692
C      1.224126    0.771712   -0.757923
C      2.085972   -0.505231   -0.652935
C      3.599927   -0.219412   -0.527699
O      4.008614    0.716543   -1.492824
C      3.978775    0.277123    0.884605
C      5.493197    0.534946    1.068617
O      5.709611    1.237526    2.269311
C      6.324872   -0.765432    1.047966
C      7.772722   -0.482285    1.307829
O      8.479365    0.062267    0.416555
O      8.327393   -0.784165    2.547658
C     -0.789060    0.006721    0.686837
H     -3.914497   -1.151585   -0.950430
H     -4.675101   -1.674887   -2.494830
H     -5.709502   -1.309253   -1.064464
H     -5.834563    0.513619   -2.698578
H     -4.054572    0.697184   -2.739786
H     -5.656502    1.012499   -0.114901
H     -6.668723    2.586977   -1.697330
H     -5.658560    3.478016   -0.507247
H     -5.046058    3.208048   -2.188366
H     -1.578182    1.929674    1.392635
H     -1.149545    0.491760    3.346686
H     -2.871117    0.976319    3.282239
H     -3.624363   -1.156527    2.634138
H     -2.795933   -2.470987    4.180336
H     -2.128150   -3.029518    1.725996
H     -0.757367   -3.396449   -0.309122
H     -0.353554   -2.444631   -2.472574
H     -1.971578   -0.181607   -1.888776
H     -0.527710    1.202594   -3.401973
H     -0.964820   -0.412563   -4.059611
H      0.690915   -0.134534   -3.415195
H     -0.736276    1.549570   -0.859525
H      1.476218    1.464224    0.071238
H      1.485984    1.313721   -1.691285
H      1.761816   -1.125854    0.208660
H      1.938643   -1.112320   -1.569600
H      4.123777   -1.185304   -0.703059
H      3.987835    0.250832   -2.369967
H      3.638314   -0.463203    1.642437
H      3.449944    1.230397    1.092141
H      5.842825    1.186971    0.238359
H      5.406731    0.655321    3.015427
H      5.943777   -1.473246    1.815875
H      6.245591   -1.259991    0.057948
H      9.300575   -0.581034    2.744477
H      0.082778    0.069848    1.376634
