45
Lipophilicity 1972 -0.10000000149011612
C      2.668117   -0.740403    3.871796
N      2.624373   -0.746118    2.401701
C      2.154075    0.562619    1.908373
C      2.177670    0.589460    0.379175
N      1.425313   -0.551779   -0.152052
C      1.725054   -1.876108    0.400777
C      1.729584   -1.820732    1.930320
C      0.810048   -0.474423   -1.450927
O      1.172352   -1.278158   -2.352791
C     -0.284608    0.523796   -1.769547
C      0.298212    1.766122   -2.493630
C     -0.530567    3.045803   -2.272845
C     -2.026969    2.734308   -2.170577
C     -2.348961    1.808073   -0.978461
C     -1.155103    0.922652   -0.544004
C     -1.651862   -0.268169    0.243906
O     -1.516154   -0.272275    1.497778
N     -2.298096   -1.371087   -0.407918
C     -2.643865   -2.585120    0.328712
C     -3.251196   -3.578073   -0.564666
N     -3.729997   -4.361213   -1.269339
H      1.660140   -0.555072    4.306363
H      3.050460   -1.714208    4.246651
H      3.366969    0.045779    4.230268
H      2.821888    1.371544    2.279014
H      1.120110    0.774731    2.265888
H      1.752164    1.552381    0.035786
H      3.228818    0.531610    0.022229
H      2.720239   -2.211234    0.035579
H      0.960096   -2.614228    0.072523
H      0.690391   -1.662996    2.298588
H      2.083957   -2.804363    2.310421
H     -0.965304    0.028084   -2.497804
H      0.342009    1.550907   -3.584266
H      1.342101    1.969352   -2.173697
H     -0.353902    3.750364   -3.114095
H     -0.198390    3.549415   -1.338323
H     -2.356033    2.248905   -3.116016
H     -2.596680    3.683099   -2.067585
H     -3.220524    1.176678   -1.260549
H     -2.664212    2.427634   -0.110027
H     -0.527909    1.537345    0.137302
H     -2.511801   -1.303801   -1.428882
H     -3.365059   -2.339420    1.136399
H     -1.726947   -3.021677    0.778454
