21
Lipophilicity 1336 -0.10999999940395355
C     -1.315160    2.168839    0.248020
C      0.020440    1.499334    0.149119
N      1.144610    2.175271   -0.175144
C      2.118202    1.245513   -0.148721
C      1.572383    0.028478    0.194044
N      2.316503   -1.195580    0.313165
O      1.782537   -2.245783    0.721296
O      3.658610   -1.207608    0.011846
N      0.242371    0.183410    0.389942
C     -0.766825   -0.835490    0.708745
C     -1.137979   -1.645620   -0.533699
O     -1.730513   -0.811940   -1.490115
H     -2.044164    1.662957   -0.417476
H     -1.234635    3.232907   -0.058877
H     -1.677158    2.126593    1.296230
H      3.158466    1.448134   -0.366191
H     -0.393179   -1.508469    1.507292
H     -1.683375   -0.360085    1.118116
H     -1.854468   -2.444762   -0.240421
H     -0.229917   -2.123508   -0.961890
H     -1.946749   -1.392590   -2.265281
