47
Lipophilicity 341 -0.49000000953674316
C      5.117114   -0.402660    1.597006
N      4.678767   -0.576034    0.203437
C      4.036999    0.656192   -0.319531
C      2.507137    0.542018   -0.359869
N      2.074975   -0.566714   -1.245442
C      0.673467   -0.951970   -0.974019
C     -0.283430    0.137346   -1.393695
O     -0.084525    0.721336   -2.494253
N     -1.478033    0.424568   -0.636240
C     -1.566754    0.154003    0.766255
C     -0.669248    0.778033    1.647182
C     -0.726655    0.517814    3.016560
C     -1.686258   -0.360816    3.518366
C     -2.596229   -0.972354    2.652543
C     -2.559699   -0.708854    1.270119
C     -3.521081   -1.400809    0.378165
O     -3.884911   -2.569697    0.680576
N     -4.107596   -0.784971   -0.782665
C     -3.856948    0.547999   -1.260263
C     -4.893694    1.258818   -1.882049
C     -4.653470    2.517394   -2.433684
C     -3.366897    3.050945   -2.379029
N     -2.364436    2.346434   -1.792775
C     -2.571837    1.119339   -1.238445
C      2.986816   -1.740552   -1.202901
C      3.830967   -1.783589    0.079104
H      5.879102    0.403746    1.657427
H      4.258512   -0.143348    2.255682
H      5.593982   -1.335011    1.970066
H      4.405696    0.831934   -1.352990
H      4.320202    1.557257    0.270589
H      2.088961    1.499416   -0.738376
H      2.143270    0.392687    0.681056
H      0.548843   -1.232221    0.093782
H      0.398524   -1.844667   -1.577033
H      0.068654    1.472809    1.268322
H     -0.027944    0.998714    3.688842
H     -1.728929   -0.565178    4.580412
H     -3.337820   -1.645405    3.065268
H     -4.882673   -1.314272   -1.243694
H     -5.888503    0.834993   -1.939036
H     -5.454971    3.069581   -2.907081
H     -3.162929    4.023293   -2.806949
H      3.673495   -1.679942   -2.074447
H      2.442040   -2.705530   -1.304857
H      3.143646   -1.889880    0.950008
H      4.484299   -2.682195    0.048556
