57
Lipophilicity 204 -1.0299999713897705
C     -5.776913   -2.084370    2.722662
C     -5.778156   -1.619539    1.292602
C     -4.715563   -0.863839    0.787805
N     -4.695118   -0.455343   -0.520569
C     -3.557185    0.356209   -1.021550
C     -3.428131    1.679334   -0.248949
C     -2.294086    2.552072   -0.813717
C     -1.217908    1.735468   -1.557717
N     -1.005478    0.393758   -0.969416
C     -0.363340    0.434792    0.364402
C      1.052785    0.940294    0.265703
C      1.404443    2.185796    0.801929
C      2.711131    2.662560    0.680020
C      3.694937    1.903552    0.020459
C      5.053202    2.471276   -0.154376
O      5.445219    3.415376    0.583728
O      5.899546    1.993869   -1.150905
C      3.346313    0.629336   -0.489083
O      4.288342   -0.206537   -1.099767
C      5.353178   -0.820912   -0.422064
C      5.464913   -0.797230    0.982473
C      6.545648   -1.421978    1.612311
C      7.517376   -2.077052    0.851418
C      7.408533   -2.110996   -0.541620
F      8.350164   -2.748946   -1.279445
C      6.328711   -1.487029   -1.174745
C      2.027538    0.172326   -0.384749
C     -2.229833   -0.450613   -0.995495
C     -5.731434   -0.814486   -1.350065
O     -5.740776   -0.462100   -2.561744
N     -6.766454   -1.560584   -0.876134
C     -6.809878   -1.970816    0.417185
O     -7.780656   -2.668548    0.819122
H     -6.768823   -1.897412    3.185671
H     -5.012325   -1.546473    3.322587
H     -5.557438   -3.171898    2.758033
H     -3.897814   -0.610541    1.451529
H     -3.729764    0.645963   -2.081940
H     -4.387297    2.238509   -0.308803
H     -3.231571    1.482365    0.825115
H     -2.719204    3.299460   -1.518712
H     -1.821763    3.119516    0.017573
H     -1.526296    1.612239   -2.619396
H     -0.267478    2.309494   -1.588656
H     -0.955045    1.045750    1.077955
H     -0.307997   -0.588965    0.795862
H      0.663103    2.797333    1.301325
H      2.945663    3.640141    1.082905
H      6.826792    2.381664   -1.276947
H      4.719551   -0.303860    1.591777
H      6.628674   -1.400081    2.691281
H      8.352671   -2.559794    1.342172
H      6.250512   -1.515516   -2.254201
H      1.766847   -0.795712   -0.795729
H     -2.194056   -1.077215   -1.912333
H     -2.232759   -1.176515   -0.154557
H     -7.545252   -1.825172   -1.522219
