54
Lipophilicity 1377 -0.8700000047683716
C     -6.146961    1.099709    1.777088
C     -5.134578    0.139693    1.236529
O     -5.266683   -1.092052    1.475863
N     -3.999113    0.633072    0.509236
C     -3.052344   -0.204553   -0.176094
C     -3.452268   -1.411623   -0.805326
C     -2.522841   -2.208342   -1.492016
C     -1.197068   -1.773270   -1.549437
C     -0.801852   -0.605421   -0.944260
C     -1.710313    0.214304   -0.271332
C      0.548151   -0.449379   -1.210718
C      0.905906   -1.541730   -1.991738
N     -0.161555   -2.347374   -2.194913
C     -0.143281   -3.610331   -2.937080
C      0.323116   -4.763772   -2.045701
C     -0.642782   -5.023600   -0.930315
O     -1.651824   -5.752979   -1.130404
O     -0.442937   -4.434060    0.315522
C      1.436529    0.667258   -0.844319
C      1.374864    1.263203    0.438825
C      2.240034    2.336857    0.737890
N      2.215200    3.006782    2.009969
C      1.639226    2.402699    3.211603
C      2.254281    2.911453    4.508139
C      2.618698    1.536394    3.976281
N      3.104275    2.731575   -0.234061
N      4.006675    3.701293   -0.166409
C      4.648753    3.729901   -1.362178
C      4.128157    2.745958   -2.193904
C      4.512218    2.444869   -3.544663
N      4.817898    2.202413   -4.633497
C      3.158977    2.142830   -1.432495
N      2.343666    1.113675   -1.762123
H     -6.384394    1.862175    1.007782
H     -7.081400    0.566731    2.050141
H     -5.738536    1.604476    2.676821
H     -3.801706    1.658538    0.558802
H     -4.489828   -1.719979   -0.799765
H     -2.844014   -3.118989   -1.976882
H     -1.401100    1.154366    0.161320
H      1.893575   -1.736261   -2.385161
H     -1.144970   -3.831644   -3.363419
H      0.557055   -3.520591   -3.796271
H      0.422821   -5.681099   -2.667023
H      1.326477   -4.532382   -1.623126
H     -1.107280   -4.581133    1.068317
H      0.682734    0.888102    1.180594
H      2.745839    3.901750    2.106548
H      0.560249    2.158337    3.237875
H      1.574034    2.884989    5.380722
H      3.070195    3.653969    4.417702
H      2.141034    0.690231    4.510881
H      3.623273    1.473318    3.518307
H      5.445718    4.419646   -1.608127
