59
Lipophilicity 279 -0.20000000298023224
C     -1.164014    4.662195   -0.658133
C     -2.435423    4.002860   -0.132696
O     -2.186891    2.638630    0.198096
C     -1.516583    2.236883    1.361611
O     -1.209496    3.083031    2.243510
C     -1.108960    0.793036    1.551429
C     -1.895950   -0.184437    0.647807
C     -3.362284   -0.325152    1.082331
C     -4.136971   -1.129810    0.073392
C     -4.120661   -2.534707    0.123187
C     -4.808348   -3.280640   -0.839564
C     -5.509085   -2.630095   -1.861018
C     -5.514245   -1.234005   -1.927271
C     -4.827063   -0.484328   -0.967284
N      0.352394    0.627182    1.396373
C      0.874607    0.913623    0.037465
C      2.156575    1.777943    0.074990
C      3.337435    1.132675    0.822942
C      4.093081    0.154097   -0.042303
C      5.444704    0.401724   -0.353547
C      6.181323   -0.525106   -1.092432
C      5.583394   -1.711861   -1.522090
C      4.246290   -1.969933   -1.223062
C      3.486452   -1.043859   -0.483768
N      2.100404   -1.309436   -0.201506
C      1.658853   -2.620678    0.290387
C      2.427728   -3.007093    1.515483
O      3.279270   -3.935986    1.462673
O      2.224180   -2.307731    2.700478
C      1.118970   -0.383792   -0.681096
O      0.418098   -0.687574   -1.683937
H     -1.379576    5.710726   -0.956157
H     -0.382385    4.663183    0.129647
H     -0.788061    4.109514   -1.544585
H     -3.215952    4.040210   -0.924863
H     -2.816568    4.553059    0.755271
H     -1.353740    0.523275    2.603399
H     -1.852849    0.152710   -0.410268
H     -1.422309   -1.188171    0.701907
H     -3.828271    0.676816    1.196196
H     -3.409108   -0.825109    2.074089
H     -3.572286   -3.050039    0.903547
H     -4.797064   -4.363021   -0.794760
H     -6.042834   -3.208698   -2.603874
H     -6.046951   -0.732165   -2.725247
H     -4.827722    0.596589   -1.037003
H      0.809989    1.239300    2.111518
H      0.138751    1.499716   -0.556847
H      2.464854    2.035305   -0.962377
H      1.908548    2.739507    0.574687
H      4.016044    1.948429    1.156098
H      3.000300    0.615697    1.745366
H      5.933199    1.308622   -0.014323
H      7.220862   -0.327396   -1.322548
H      6.157063   -2.430733   -2.093891
H      3.798435   -2.886902   -1.582454
H      1.772457   -3.384939   -0.506896
H      0.582574   -2.587142    0.561852
H      2.744817   -2.546000    3.537133
