19
freesolv 101 -0.548008143901825
C      2.954772   -0.122339   -0.270827
C      1.467833   -0.140767   -0.073323
C      0.825557   -1.314972    0.343887
C     -0.563417   -1.344296    0.492916
C     -1.331753   -0.201253    0.219653
C     -0.693451    0.970816   -0.225849
C      0.701260    0.994959   -0.373016
O     -1.446652    2.106523   -0.523629
C     -2.826524   -0.242003    0.365956
H      3.361722    0.894761   -0.086536
H      3.192535   -0.424474   -1.312091
H      3.452615   -0.823342    0.432620
H      1.400035   -2.208926    0.553566
H     -1.038389   -2.261340    0.819025
H      1.186577    1.898413   -0.722026
H     -1.011571    2.962700   -0.846912
H     -3.299623   -0.170046   -0.635825
H     -3.163200   -1.183394    0.850186
H     -3.168327    0.608981    0.992225
