20
freesolv 221 -0.8002954721450806
C      4.061339   -0.238248   -0.189067
O      2.674635    0.052700   -0.315237
C      1.690355   -0.631998    0.406157
O      2.019468   -1.549543    1.208176
C      0.264651   -0.278249    0.226741
C     -0.106467    0.742037   -0.664559
C     -1.452043    1.079659   -0.837307
C     -2.455708    0.404543   -0.122703
C     -2.084004   -0.616711    0.769418
C     -0.738577   -0.954421    0.942262
N     -3.840040    0.755171   -0.303413
O     -4.736147    0.158487    0.329078
O     -4.199770    1.755359   -1.177570
H      4.637033    0.433712   -0.858042
H      4.256981   -1.291571   -0.481828
H      4.390914   -0.072026    0.858417
H      0.642414    1.281770   -1.230513
H     -1.706148    1.870304   -1.531344
H     -2.833876   -1.155377    1.334499
H     -0.485010   -1.745598    1.636835
