13
freesolv 64 -0.8315062522888184
C     -0.086999   -1.187147   -0.245439
C     -1.482523   -1.123087   -0.269704
N     -2.115426    0.058684   -0.044651
C     -1.422795    1.200781    0.207786
C     -0.026041    1.181484    0.241249
C      0.654516   -0.025471    0.012316
C      2.127072   -0.089241    0.038706
O      2.818560    0.938589    0.267713
H      0.408267   -2.133453   -0.425958
H     -2.062837   -2.014350   -0.467767
H     -1.956574    2.125339    0.382824
H      0.513557    2.098284    0.443449
H      2.631226   -1.030411   -0.140523
