19
freesolv 82 -0.6130306124687195
C      2.313357   -0.061836   -0.194675
C      0.857353   -0.401607   -0.007161
C      0.472513   -1.752373    0.028706
C     -0.865135   -2.104478    0.202514
C     -1.836375   -1.115507    0.342726
C     -1.480242    0.238620    0.299328
C     -0.131612    0.609865    0.102406
C      0.252434    2.069897    0.067781
O     -2.466307    1.213786    0.452925
H      2.633731    0.685322    0.561365
H      2.960289   -0.957141   -0.076156
H      2.471929    0.351018   -1.212787
H      1.210589   -2.538475   -0.073377
H     -1.149254   -3.148509    0.233766
H     -2.870301   -1.402635    0.486594
H      0.719641    2.352843    1.034098
H      0.969907    2.263576   -0.756515
H     -0.623156    2.728352   -0.107796
H     -3.439362    0.969283    0.595608
