13
freesolv 174 -0.6208333373069763
C      0.240518    1.252032   -0.442416
C     -1.141254    1.036551   -0.409374
C     -1.647905   -0.195499    0.017300
C     -0.772212   -1.212690    0.411175
C      0.609767   -0.998616    0.378646
C      1.119918    0.236255   -0.048931
O      2.493842    0.462846   -0.086221
F     -2.987246   -0.403663    0.049074
H      0.627971    2.207211   -0.773378
H     -1.817824    1.824484   -0.714419
H     -1.163038   -2.166505    0.741538
H      1.281559   -1.790347    0.684905
H      3.155905   -0.252059    0.192101
