27
freesolv 432 -0.18388204276561737
C      3.867701   -0.088673    0.310450
C      2.380635    0.036043    0.144413
C      1.654797    0.609747    1.113698
C      0.191882    0.757040    1.000966
O     -0.426758    1.297237    1.956006
C     -0.542714    0.313870   -0.258416
C      0.269939   -0.821675   -0.928380
C      1.731580   -0.408511   -1.142851
C     -2.031780   -0.085828    0.038763
C     -2.923648    1.163540    0.181160
C     -2.654238   -0.995164   -1.038079
H      4.336412   -0.529880   -0.594308
H      4.094510   -0.741568    1.179644
H      4.314282    0.914001    0.480551
H      2.141621    0.953983    2.019292
H     -0.543673    1.173287   -0.965706
H     -0.153442   -1.065149   -1.925988
H      0.234901   -1.736859   -0.296127
H      2.285798   -1.271524   -1.571018
H      1.777790    0.427297   -1.874145
H     -2.068022   -0.649274    0.998037
H     -2.564056    1.842699    0.977524
H     -2.953742    1.730402   -0.774270
H     -3.960586    0.866832    0.448280
H     -2.164666   -1.991436   -1.043488
H     -3.730706   -1.170326   -0.824995
H     -2.563818   -0.530111   -2.043259
