16
freesolv 249 -1.5103412866592407
C      2.201389   -0.443585   -0.043937
C      2.030539    0.958155   -0.060509
C      0.741037    1.519639   -0.039141
C     -0.348961    0.651813   -0.001550
C     -0.182197   -0.716399    0.014627
C      1.084424   -1.297676   -0.005829
C     -1.509575   -1.319824    0.053817
O     -1.756520   -2.554048    0.077485
N     -2.512889   -0.305549    0.061961
C     -1.782517    0.919529    0.027340
O     -2.318721    2.058527    0.022951
H      3.198519   -0.863872   -0.060656
H      2.897589    1.605113   -0.089839
H      0.600788    2.592650   -0.051530
H      1.206018   -2.372953    0.007185
H     -3.548924   -0.431522    0.087625
