17
freesolv 241 -0.23069825768470764
C      2.698637    0.253725    0.152939
N      1.613216   -0.687218   -0.103458
C      0.220630   -0.324170   -0.067623
C     -0.195760    0.990566    0.223305
C     -1.557124    1.310137    0.250128
C     -2.514078    0.326957   -0.011612
C     -2.111901   -0.978816   -0.300953
C     -0.752209   -1.303609   -0.329047
H      2.668536    1.077615   -0.590702
H      3.676177   -0.266020    0.066245
H      2.606875    0.666357    1.179592
H      1.872077   -1.675807   -0.324103
H      0.522355    1.772256    0.429917
H     -1.870327    2.321730    0.474225
H     -3.566950    0.576945    0.009791
H     -2.853940   -1.740275   -0.503697
H     -0.456215   -2.320373   -0.554946
