12
freesolv 208 -0.2437027543783188
C      1.254116   -0.197672    0.359804
C      0.063058    0.325549   -0.449192
C     -1.183190   -0.537655   -0.228750
O     -0.201459    1.668170   -0.129350
H      1.023338   -0.189961    1.446638
H      2.142210    0.443977    0.178068
H      1.500534   -1.235904    0.050775
H      0.330233    0.275972   -1.526972
H     -1.474729   -0.538420    0.843412
H     -2.027775   -0.137699   -0.828886
H     -0.986821   -1.582867   -0.549865
H     -0.439514    1.706510    0.834316
