8
freesolv 285 -0.7508783340454102
C     -0.981694   -0.090952   -0.149779
C      0.438387    0.290923    0.096769
O      0.756005    1.506257    0.192753
O      1.418413   -0.693427    0.173739
H     -1.157014   -1.135411    0.183164
H     -1.660942    0.583499    0.413148
H     -1.202945   -0.012274   -1.234421
H      2.389790   -0.448615    0.324628
