15
freesolv 216 -0.18128114938735962
C     -1.220529    0.806221   -0.747270
C     -0.365379    0.034617    0.265001
C     -0.167901   -1.413275   -0.203481
C      0.984360    0.743445    0.475512
O      1.699506    0.144986    1.524211
H     -0.713319    0.851730   -1.735154
H     -1.399901    1.842019   -0.387857
H     -2.207183    0.311153   -0.872789
H     -0.911245    0.017999    1.234429
H     -1.152651   -1.901558   -0.365182
H      0.406950   -1.443264   -1.154083
H      0.377163   -1.998788    0.566533
H      1.579662    0.743228   -0.468009
H      0.802100    1.804488    0.750446
H      2.288367   -0.543000    1.117693
