17
freesolv 302 -0.24110186100006104
C      2.237115    0.055989    0.603561
C      1.397993   -0.328743   -0.610357
C     -0.066472   -0.118298   -0.334595
C     -0.835501   -1.142533    0.237384
C     -2.186106   -0.916089    0.513887
N     -2.745624    0.292106    0.238876
C     -2.020912    1.305958   -0.304560
C     -0.667154    1.121911   -0.596679
H      1.957924   -0.568815    1.478845
H      3.312309   -0.106616    0.379111
H      2.084042    1.127571    0.854025
H      1.589574   -1.393757   -0.865837
H      1.714223    0.282862   -1.483378
H     -0.393895   -2.104300    0.467277
H     -2.789139   -1.700857    0.950676
H     -2.494895    2.257060   -0.507144
H     -0.093483    1.936551   -1.021090
