19
freesolv 179 -1.0317755937576294
C     -2.284160    0.227718    0.325087
N     -0.848033   -0.004511    0.539549
C     -0.387385   -1.152913   -0.269547
C      1.151448   -1.257321   -0.284298
N      1.736638   -0.418742    0.766847
C      1.416879    0.998516    0.535860
C     -0.075477    1.204740    0.203532
H     -2.495393    0.511833   -0.730122
H     -2.860958   -0.688628    0.575799
H     -2.642435    1.037760    0.995987
H     -0.752595   -1.075097   -1.319533
H     -0.805386   -2.086865    0.166427
H      1.453410   -2.314927   -0.121545
H      1.543269   -0.947169   -1.280086
H      2.777208   -0.527087    0.728525
H      2.043049    1.404564   -0.290676
H      1.668874    1.567746    1.456600
H     -0.184382    1.444742   -0.879516
H     -0.454569    2.075640    0.783599
