15
freesolv 324 -1.7782340049743652
C      0.347108   -1.199689   -0.011306
C     -1.040804   -1.077055    0.105937
C     -1.635658    0.190491    0.137464
C     -0.835752    1.333412    0.051189
C      0.552591    1.214803   -0.066154
C      1.159935   -0.053565   -0.098738
N      2.589162   -0.173674   -0.219567
O      3.133787   -1.296876   -0.249005
O      3.380524    0.948997   -0.304797
O     -3.017321    0.324536    0.253995
H      0.784020   -2.189790   -0.033551
H     -1.652583   -1.967794    0.172175
H     -1.290585    2.315618    0.075093
H      1.149734    2.115050   -0.131284
H     -3.624158   -0.484463    0.318551
