21
freesolv 204 -0.39195409417152405
C      3.879821    0.351463    0.191852
C      2.524669   -0.275645    0.480065
O      1.537380    0.734383    0.484431
C      0.247388    0.168041    0.620912
C     -0.420209    0.043308   -0.749980
O     -1.729605   -0.508225   -0.623293
C     -2.831565    0.220606   -0.162096
O     -2.729837    1.449925    0.100074
C     -4.155525   -0.452886   -0.035714
H      3.865208    0.846610   -0.802294
H      4.123788    1.104636    0.970901
H      4.664942   -0.433913    0.191690
H      2.318820   -1.037451   -0.305914
H      2.573194   -0.772680    1.475251
H      0.241849   -0.820944    1.138996
H     -0.356980    0.853499    1.250818
H     -0.466428    1.035012   -1.250982
H      0.182621   -0.634503   -1.389482
H     -4.707493   -0.048326    0.838827
H     -4.748812   -0.278008   -0.957097
H     -4.013225   -1.544902    0.104589
