13
freesolv 181 -0.1526712328195572
C     -1.695656    0.045230   -0.466313
C     -0.499456    0.163461    0.473597
C      0.797053   -0.256311   -0.223347
N      1.920349   -0.155605    0.702855
H     -1.557105    0.701945   -1.351549
H     -2.618839    0.357019    0.066125
H     -1.818548   -1.005795   -0.804463
H     -0.413607    1.216999    0.818130
H     -0.669996   -0.484045    1.361128
H      0.980342    0.392397   -1.109533
H      0.704974   -1.309491   -0.569483
H      2.768786   -0.523771    0.214812
H      2.101703    0.857966    0.888042
