16
freesolv 126 -1.159219741821289
C      2.445220   -0.642740   -0.376052
C      1.438882    0.401166   -0.757693
O      1.804073    1.335053   -1.522664
C      0.037938    0.360023   -0.260481
C     -0.412144   -0.663458    0.594566
C     -1.733581   -0.674244    1.044273
C     -2.603102    0.337467    0.638996
N     -2.162141    1.321999   -0.186192
C     -0.880483    1.357064   -0.639294
H      2.099847   -1.641430   -0.716175
H      2.582384   -0.649185    0.725534
H      3.426825   -0.430187   -0.850882
H      0.248686   -1.455985    0.918840
H     -2.080606   -1.460878    1.701819
H     -3.629619    0.340634    0.980391
H     -0.582182    2.164700   -1.294987
