16
freesolv 94 -0.7508783340454102
C     -2.394589    0.728876   -0.177239
C     -1.342700   -0.051886    0.595501
O     -0.093961    0.093861   -0.046150
C      0.887299   -0.632452    0.663578
C      2.240023   -0.465470   -0.023374
O      2.660930    0.870794    0.036657
H     -2.469223    0.341153   -1.215424
H     -2.122032    1.805195   -0.208748
H     -3.382219    0.621780    0.319124
H     -1.303917    0.350072    1.633744
H     -1.652645   -1.121622    0.621924
H      0.976426   -0.264556    1.711714
H      0.638338   -1.718266    0.675328
H      2.180497   -0.814268   -1.079926
H      2.990105   -1.095739    0.499693
H      2.187670    1.352529   -0.691046
