24
freesolv 313 -2.1189520359039307
C      3.623589   -0.765234   -0.357889
N      2.276780   -0.442910    0.120280
C      2.099238    0.413055    1.298522
C      1.144106   -1.102351   -0.480779
O      1.297709   -2.231833   -1.021338
C     -0.203860   -0.494960   -0.473920
C     -1.332111   -1.291587   -0.227680
C     -2.611744   -0.728751   -0.235257
C     -2.788149    0.639593   -0.503543
C     -1.656498    1.430889   -0.771749
C     -0.377577    0.866820   -0.762916
N     -4.106898    1.216366   -0.510676
O     -4.269597    2.431157   -0.749181
O     -5.211985    0.438033   -0.252030
H      3.846928   -1.835413   -0.163012
H      3.687803   -0.570785   -1.449386
H      4.394601   -0.144889    0.145977
H      1.396240   -0.066321    2.012599
H      1.701870    1.402954    0.998565
H      3.060893    0.575070    1.829520
H     -1.221476   -2.348312   -0.016666
H     -3.462872   -1.365529   -0.031827
H     -1.760529    2.484647   -0.996377
H      0.473535    1.490291   -1.005854
