26
freesolv 6 -0.3789495825767517
C      3.735925    1.215998    0.638493
C      2.452996    0.390292    0.626115
C      1.670761    0.601763   -0.674087
C      0.408133   -0.218652   -0.670795
C      0.416756   -1.529063   -1.168875
C     -0.745497   -2.301210   -1.137063
C     -1.926917   -1.781308   -0.599164
C     -1.949870   -0.472868   -0.081433
C     -0.772705    0.301639   -0.117555
O     -3.148128    0.021016    0.458758
C     -3.307670    1.321908    1.015405
O     -3.069045   -2.581846   -0.585077
H      4.280272    1.042633    1.590633
H      3.498971    2.298242    0.556765
H      4.393894    0.919268   -0.205960
H      2.715740   -0.684863    0.734529
H      1.824846    0.688319    1.494097
H      2.303452    0.315938   -1.543314
H      1.418451    1.679032   -0.789489
H      1.324200   -1.953058   -1.580969
H     -0.728191   -3.310213   -1.529265
H     -0.764554    1.306656    0.282849
H     -2.627563    1.451869    1.883616
H     -3.098969    2.094890    0.245890
H     -4.354073    1.441130    1.363456
H     -3.951215   -2.257511   -0.207560
