20
freesolv 251 -0.16047394275665283
C     -0.607582    0.596616    1.590829
C      0.127371    0.016431    0.362019
O      0.434749   -1.350166    0.642706
C     -0.639764   -2.225232    0.361518
O     -0.664906    0.129730   -0.827313
C     -0.987217    1.469357   -1.149956
O      1.348060    0.735678    0.224971
C      2.162436    0.188804   -0.793829
H     -0.593817    1.707212    1.571376
H     -1.664903    0.261218    1.621092
H     -0.101943    0.271581    2.525194
H     -0.747504   -2.369687   -0.735001
H     -0.411243   -3.215771    0.805195
H     -1.597791   -1.877743    0.802799
H     -0.111545    2.151240   -1.095078
H     -1.356463    1.496958   -2.195429
H     -1.809569    1.840328   -0.502641
H      3.026113    0.866293   -0.952950
H      2.570012   -0.799789   -0.491684
H      1.625507    0.106943   -1.763819
