12
freesolv 312 -1.6117764711380005
C     -1.945996   -0.056327   -0.090101
C     -0.510769   -0.444773   -0.235337
O     -0.212274   -1.533772   -0.796544
N      0.518549    0.431258    0.238864
C      1.931293    0.096478    0.111464
H     -2.147675    0.244598    0.959168
H     -2.168052    0.796875   -0.764196
H     -2.609674   -0.907705   -0.352025
H      0.252864    1.336080    0.689258
H      2.145409   -0.846777    0.656750
H      2.194218   -0.025649   -0.960388
H      2.552107    0.909714    0.543088
