23
freesolv 7 -0.02522711455821991
C      3.058683   -0.227223   -0.339868
C      1.571259   -0.208820   -0.543589
O      1.132548   -0.465588   -1.654231
C      0.624659    0.120297    0.598526
C     -0.296996   -1.067950    0.950892
C     -1.455585   -1.244873   -0.041399
C     -2.250065    0.054254   -0.202343
C     -1.341666    1.202021   -0.652092
C     -0.181609    1.410496    0.332325
H      3.334500    0.020946    0.705938
H      3.452104   -1.237602   -0.578029
H      3.533683    0.514697   -1.015365
H      1.238535    0.317863    1.504638
H      0.296311   -2.007280    0.997276
H     -0.724112   -0.900887    1.964609
H     -1.071573   -1.577765   -1.028744
H     -2.134961   -2.040064    0.334330
H     -3.050433   -0.097146   -0.958261
H     -2.736109    0.317781    0.762879
H     -1.940515    2.136527   -0.708058
H     -0.951655    0.998009   -1.671602
H     -0.599467    1.776391    1.296418
H      0.492462    2.205917   -0.054250
