12
freesolv 273 -1.4557223320007324
C     -1.287389   -0.069964   -0.784855
C     -0.365988    0.769845    0.092033
C      0.548550   -0.108515    0.890597
O      0.227685   -0.448011    2.060717
N      1.761084   -0.598468    0.318538
H     -1.911464   -0.741070   -0.156568
H     -1.957668    0.597878   -1.365931
H     -0.691848   -0.681688   -1.495994
H      0.235432    1.450122   -0.548445
H     -0.978815    1.395729    0.776469
H      2.390751   -1.221387    0.871437
H      2.029670   -0.344471   -0.657997
