24
freesolv 217 -0.03823161870241165
C      3.611377   -0.646201    0.560640
C      3.652592    0.655391    0.054566
C      2.469897    1.309207   -0.302168
C      1.233127    0.661312   -0.153870
C      0.041489    1.310247   -0.509447
C     -1.191342    0.658248   -0.359197
C     -2.387180    1.303062   -0.713527
C     -3.611376    0.646197   -0.560649
C     -3.652592   -0.655392   -0.054570
C     -2.469897   -1.309209    0.302164
C     -1.233127   -0.661312    0.153870
C     -0.041490   -1.310246    0.509450
C      1.191342   -0.658247    0.359200
C      2.387180   -1.303063    0.713525
H      4.530608   -1.147375    0.835183
H      4.603638    1.158942   -0.061546
H      2.521806    2.318520   -0.692891
H      0.073493    2.320889   -0.902402
H     -2.375175    2.312315   -1.107654
H     -4.530606    1.147377   -0.835182
H     -4.603639   -1.158938    0.061552
H     -2.521806   -2.318519    0.692896
H     -0.073493   -2.320892    0.902393
H      2.375171   -2.312312    1.107663
