12
freesolv 365 -1.1384124755859375
C     -0.909745   -0.159718    0.720911
C      0.087089   -0.942946   -0.128652
O      0.679025   -0.103034   -1.116312
N      1.649355    0.829537   -0.806993
O      2.103835    1.562601   -1.707341
O      2.156194    0.931411    0.468593
O     -1.919654    0.364162   -0.095719
H     -0.386537    0.664928    1.252970
H     -1.355611   -0.844066    1.476578
H      0.875197   -1.387914    0.516290
H     -0.445981   -1.772597   -0.639651
H     -2.533168    0.857637    0.508443
