20
freesolv 148 -0.3035234808921814
C      0.208578   -2.154604   -0.717358
C     -0.179842   -0.866587    0.002115
O      0.879405    0.087043   -0.089674
C      2.049850    0.016562    0.673880
O      2.198893   -0.880313    1.547730
C      3.107386    1.051188    0.491442
O     -1.349484   -0.331005   -0.610956
C     -2.019915    0.792548   -0.117120
O     -1.627662    1.367429    0.934630
C     -3.242218    1.284145   -0.814797
H      1.094392   -2.616212   -0.233304
H     -0.633346   -2.877723   -0.675989
H      0.448255   -1.939897   -1.780480
H     -0.401561   -1.095083    1.068925
H      3.041033    1.484833   -0.528352
H      2.968055    1.858176    1.240357
H      4.112252    0.597260    0.623113
H     -3.282689    2.393226   -0.777088
H     -3.227844    0.962098   -1.877124
H     -4.143540    0.866916   -0.319757
