25
freesolv 290 -1.4479197263717651
C     -4.624532   -0.200092   -0.057579
C     -3.121607   -0.214153    0.204381
C     -2.339251   -0.529020   -1.073459
O     -0.940402   -0.586619   -0.801139
C     -0.143905    0.548479   -0.601683
O     -0.644890    1.701420   -0.715187
C      1.288228    0.391969   -0.264871
C      1.851088   -0.890439   -0.136028
C      3.204101   -1.041282    0.183119
C      4.012028    0.086122    0.377812
C      3.460068    1.364032    0.251821
C      2.107505    1.519056   -0.067176
O      5.361096   -0.052625    0.696065
H     -4.961809   -1.192646   -0.425224
H     -4.877090    0.575965   -0.811279
H     -5.163896    0.031268    0.885033
H     -2.815917    0.778216    0.599075
H     -2.893356   -0.982413    0.974565
H     -2.658380   -1.519706   -1.461779
H     -2.545357    0.231396   -1.858641
H      1.247705   -1.777692   -0.281097
H      3.623199   -2.034883    0.278910
H      4.080157    2.238826    0.401422
H      1.704493    2.519935   -0.158705
H      5.790723   -0.965115    0.794445
