12
freesolv 194 -3.411599636077881
C      1.298897   -0.459480    0.019032
C      1.025245    0.903445    0.119414
C     -0.307008    1.319982    0.095370
O     -0.587420    2.545268    0.184088
N     -1.302584    0.399394   -0.024145
C     -1.015509   -0.928550   -0.121050
O     -1.949089   -1.768033   -0.231160
N      0.279027   -1.350334   -0.099112
F      2.036213    1.800587    0.237694
H      2.323895   -0.808081    0.035207
H     -2.299360    0.715399   -0.041761
H      0.497694   -2.369599   -0.173579
