18
freesolv 12 -0.9563494920730591
C      3.281708   -0.042961   -0.042996
O      2.197130    0.797826    0.336728
C      0.843815    0.456535    0.195707
C      0.427513   -0.775265   -0.345945
C     -0.934766   -1.067909   -0.465389
C     -1.896806   -0.138495   -0.047371
C     -1.484080    1.087373    0.491684
C     -0.122384    1.380687    0.611428
N     -3.289524   -0.438915   -0.170031
H      3.249280   -0.991685    0.533292
H      3.237102   -0.255248   -1.132114
H      4.237035    0.475094    0.179101
H      1.146976   -1.511694   -0.676852
H     -1.240414   -2.018796   -0.883631
H     -2.216497    1.814740    0.818678
H      0.184305    2.331163    1.029481
H     -4.013704    0.247442    0.138769
H     -3.606690   -1.349891   -0.570540
