17
freesolv 383 -0.2983216643333435
C      0.620164    1.931435    1.043663
C      0.569434    0.499382    0.513733
C     -0.862593    0.132341    0.106275
O     -0.924771   -1.230738   -0.295380
N     -2.103892   -1.810061   -0.716289
O     -2.111135   -3.008359   -1.060681
O     -3.271988   -1.083603   -0.762155
O      1.443959    0.395560   -0.609649
N      2.000629   -0.802633   -1.012755
O      2.710378   -0.832953   -2.037367
O      1.843562   -1.948273   -0.266296
H      0.285268    2.647499    0.262705
H      1.660914    2.185747    1.336581
H     -0.031228    2.036280    1.937586
H      0.911758   -0.177275    1.327650
H     -1.191981    0.779947   -0.735572
H     -1.548478    0.285704    0.967952
