17
freesolv 320 -0.6130306124687195
C     -2.205200    0.971035   -0.385280
C     -0.747756    0.564335   -0.582024
C     -0.442908   -0.763034    0.127337
C      1.000222   -1.228290   -0.107029
C      1.990073   -0.333164    0.573124
O      2.191783   -0.441354    1.812301
O      2.663718    0.639450   -0.159037
H     -2.426935    1.100199    0.695577
H     -2.395841    1.933894   -0.904474
H     -2.882200    0.199075   -0.809313
H     -0.546873    0.463114   -1.670830
H     -0.097088    1.369029   -0.176977
H     -1.127876   -1.547269   -0.263265
H     -0.630885   -0.661635    1.219234
H      1.116191   -2.258835    0.292911
H      1.215549   -1.267689   -1.196864
H      3.326028    1.261138    0.289242
