19
freesolv 212 -0.6364387273788452
C     -2.606821    0.340457    0.216153
C     -1.630868    0.173114   -0.943676
C     -0.246167   -0.127631   -0.435984
C      0.152459   -1.455272   -0.209936
C      1.428022   -1.731783    0.290544
C      2.310388   -0.686928    0.577848
C      1.919553    0.639893    0.370099
C      0.640372    0.919228   -0.132521
O      2.806610    1.672043    0.667376
H     -2.288924    1.181256    0.869188
H     -2.654944   -0.592804    0.817116
H     -3.620475    0.561224   -0.179599
H     -1.621317    1.103708   -1.552040
H     -1.983362   -0.649315   -1.603661
H     -0.524333   -2.274266   -0.420068
H      1.731776   -2.756924    0.458852
H      3.296563   -0.907639    0.966142
H      0.337318    1.948001   -0.284811
H      2.554149    2.643635    0.528980
