12
freesolv 93 -0.7664837837219238
C     -1.511352    0.124833   -0.340925
C     -0.407920    0.965450   -0.178275
C      0.839727    0.419949    0.144128
C      0.958446   -0.966607    0.298373
N     -0.130622   -1.765313    0.134972
C     -1.351172   -1.253446   -0.178418
C      1.986203    1.273204    0.314970
N      2.907994    1.959267    0.452327
H     -2.480618    0.536848   -0.590306
H     -0.526495    2.035068   -0.303141
H      1.912994   -1.412927    0.547723
H     -2.197185   -1.916326   -0.301428
