31
freesolv 60 -1.6663953065872192
C     -4.013910    0.110092    0.992946
C     -3.207328    0.709538   -0.165231
C     -1.786245    0.181887   -0.173167
C     -1.522312   -1.181982   -0.399954
C     -0.211065   -1.663299   -0.400688
C      0.861612   -0.790794   -0.172759
C      2.181921   -1.265922   -0.171664
C      3.253394   -0.394277    0.056814
C      2.995636    0.970612    0.287007
C      1.683905    1.452724    0.287781
C      0.609873    0.580829    0.058853
C     -0.710164    1.057143    0.058048
O      4.553254   -0.921987    0.046985
C      5.733929   -0.156096    0.263518
C     -3.873198    0.459759   -1.491804
O     -3.807787    1.333175   -2.398018
O     -4.519090   -0.748026   -1.744245
H     -4.096787   -0.993674    0.900106
H     -3.521694    0.348941    1.960000
H     -5.037049    0.543168    1.007490
H     -3.194563    1.810992   -0.003066
H     -2.333163   -1.876454   -0.577526
H     -0.036243   -2.717715   -0.579007
H      2.384464   -2.315990   -0.348288
H      3.802537    1.667811    0.466529
H      1.509684    2.507085    0.467249
H     -0.900437    2.109203    0.237492
H      5.827301    0.630039   -0.515265
H      6.616535   -0.824972    0.200581
H      5.709409    0.306220    1.272920
H     -4.952418   -0.928027   -2.641923
