14
freesolv 135 -0.293119877576828
C      1.995501   -0.044099   -0.000927
C      0.496355   -0.012758    0.029159
C     -0.239295   -1.202678   -0.064277
C     -1.635473   -1.148777   -0.072426
N     -2.272335    0.050511   -0.003790
C     -1.583057    1.220036    0.071744
C     -0.185887    1.210969    0.082620
H      2.344808    0.012205   -1.053000
H      2.376832   -0.981134    0.458007
H      2.416524    0.812677    0.567181
H      0.261696   -2.160655   -0.129281
H     -2.213020   -2.061216   -0.137338
H     -2.119656    2.158175    0.119459
H      0.357008    2.146745    0.132869
