20
freesolv 222 -0.5193982124328613
C     -2.680322   -1.000212    0.176459
C     -1.495844   -0.084319    0.079726
C     -1.671002    1.304244    0.149419
C     -0.566049    2.155576    0.095890
C      0.726330    1.632787   -0.014003
C      0.921193    0.239911   -0.066701
C     -0.199471   -0.613722   -0.012447
O      2.230241   -0.257478   -0.169733
C      2.566886   -1.639660   -0.231833
O      1.806327    2.513923   -0.066338
H     -2.502484   -1.931906   -0.401786
H     -3.589996   -0.511467   -0.233102
H     -2.858137   -1.262356    1.240274
H     -2.663093    1.728381    0.244121
H     -0.713547    3.227126    0.143427
H     -0.072999   -1.687818   -0.041710
H      2.228706   -2.156973    0.690780
H      2.101497   -2.106388   -1.125586
H      3.668562   -1.740890   -0.311742
H      2.763202    2.191243   -0.145113
