44
freesolv 289 -0.9433450102806091
C      4.594271    0.814341    1.783861
N      3.847679    0.972909    0.523228
C      4.793824    1.002680   -0.604008
C      2.871260   -0.123406    0.341434
C      1.588772    0.156043    1.133795
C      0.522883   -0.851666    0.785598
C     -0.583150   -0.585756    0.057575
C     -1.595483   -1.654136   -0.163155
C     -1.132259   -2.907772   -0.614334
C     -2.014936   -3.959427   -0.850087
C     -3.378799   -3.781354   -0.650152
C     -3.866039   -2.550369   -0.214909
C     -2.999785   -1.470112    0.045640
C     -3.681547   -0.175536    0.479128
C     -2.798066    0.906516    1.104454
C     -1.911401    1.516980    0.056207
C     -0.852024    0.765226   -0.472606
C     -0.064353    1.297992   -1.505683
C     -0.322616    2.580745   -1.995113
C     -1.374462    3.332389   -1.466315
C     -2.173166    2.801223   -0.449735
H      5.311797    1.653428    1.911993
H      5.157376   -0.145485    1.804507
H      3.905619    0.850491    2.652615
H      5.334244    0.034363   -0.701627
H      4.252354    1.214424   -1.551159
H      5.534195    1.820330   -0.466513
H      3.302366   -1.104933    0.645676
H      2.590217   -0.212838   -0.732080
H      1.792753    0.064852    2.220577
H      1.254453    1.199317    0.955127
H      0.673307   -1.853260    1.171903
H     -0.077575   -3.070103   -0.801784
H     -1.639610   -4.913594   -1.197048
H     -4.063762   -4.597589   -0.840632
H     -4.935591   -2.437585   -0.081655
H     -4.459691   -0.428190    1.233154
H     -4.216209    0.252925   -0.397282
H     -2.192510    0.479946    1.933663
H     -3.450529    1.686421    1.554901
H      0.742077    0.718638   -1.935514
H      0.288707    2.989733   -2.789099
H     -1.577551    4.323255   -1.851513
H     -2.997038    3.387945   -0.063036
