16
freesolv 235 -1.8718664646148682
C     -2.247908    0.084347    0.759197
C     -1.460405   -1.068584    0.741217
C     -0.161120   -1.024623    0.225410
C      0.366985    0.181457   -0.274863
C     -0.442192    1.333626   -0.261768
C     -1.740045    1.283644    0.256109
C      1.740599    0.247879   -0.831492
O      2.044146    1.172207   -1.633300
N      2.742146   -0.706437   -0.468351
H     -3.253300    0.047181    1.158325
H     -1.859350   -2.000115    1.121678
H      0.412745   -1.940725    0.199212
H     -0.067918    2.275893   -0.642517
H     -2.352326    2.176156    0.267242
H      2.595290   -1.391437    0.304480
H      3.682653   -0.670469   -0.920579
