19
freesolv 244 -0.7014612555503845
C     -0.304173    0.989201   -2.106022
C      0.025680    0.170970   -0.885218
C      0.799827   -0.993840   -1.024715
C      1.123205   -1.769312    0.090101
C      0.679450   -1.392281    1.361580
C     -0.087679   -0.234417    1.514803
C     -0.418374    0.559416    0.402351
C     -1.249830    1.799597    0.601000
O      0.995160   -2.160650    2.479978
H      0.070349    0.508979   -3.035060
H      0.163642    1.992383   -2.023060
H     -1.404324    1.102252   -2.200891
H      1.154936   -1.305732   -1.999204
H      1.719098   -2.664363   -0.035935
H     -0.424306    0.044415    2.506002
H     -0.712784    2.684461    0.200111
H     -1.458317    1.985931    1.676072
H     -2.221031    1.688466    0.075138
H      1.549471   -3.005477    2.402970
