18
freesolv 31 -0.16307483613491058
C      1.851634    0.250693    0.508655
C      0.931576   -0.631576   -0.341970
C     -0.569471   -0.220190   -0.338557
C     -1.179296   -0.308808    1.076404
C     -0.751711    1.206950   -0.883249
O     -1.275921   -1.085792   -1.196256
H      2.888054   -0.143581    0.450195
H      1.865619    1.293617    0.131705
H      1.543960    0.238919    1.574016
H      1.025730   -1.677839    0.023206
H      1.308231   -0.620884   -1.388346
H     -2.279582   -0.161446    1.026254
H     -0.760962    0.470457    1.747505
H     -0.983136   -1.306556    1.524074
H     -1.832827    1.430921   -1.010851
H     -0.328551    1.964441   -0.190529
H     -0.258916    1.309844   -1.873799
H     -1.194431   -2.009171   -0.838459
