19
freesolv 200 -0.5402054190635681
C     -2.476130   -1.109612    0.066870
C     -1.415914   -0.058459    0.129343
C     -1.609458    1.315336    0.235689
N     -0.421640    1.962215    0.202452
C      0.516899    1.009209    0.064659
C     -0.052765   -0.237217    0.010617
C      0.715110   -1.390711   -0.149059
C      2.110530   -1.240436   -0.248222
C      2.698423    0.042998   -0.189628
C      1.896218    1.188378   -0.032692
H     -2.195222   -1.967104    0.713378
H     -3.446106   -0.699791    0.419085
H     -2.588049   -1.460671   -0.979955
H     -2.566093    1.813710    0.324153
H     -0.269859    2.993769    0.260207
H      0.256831   -2.370089   -0.195657
H      2.737434   -2.113915   -0.371449
H      3.772800    0.146366   -0.268333
H      2.336989    2.176025    0.008541
