27
freesolv 227 -1.4895341396331787
C      3.888889    0.866135    0.493215
C      3.988828   -0.525714    0.525263
C      2.859727   -1.314449    0.291475
C      1.615557   -0.712427    0.031667
C      1.514870    0.689330   -0.000873
C      2.659516    1.474055    0.227233
C      0.213866    1.316045   -0.313069
O      0.189269    2.513624   -0.706040
C     -1.039685    0.508769   -0.236150
C     -2.325973    1.114885   -0.239311
C     -3.468271    0.311657   -0.303916
C     -3.365984   -1.072658   -0.261625
C     -2.122520   -1.692501   -0.151522
C     -0.936705   -0.910843   -0.197921
C      0.418819   -1.532085   -0.248085
O      0.568123   -2.732879   -0.600515
O     -2.119276   -3.076974    0.035996
N     -2.506064    2.533078   -0.122979
H      4.765763    1.474997    0.671908
H      4.943066   -0.994310    0.728729
H      2.957761   -2.392585    0.317789
H      2.602700    2.555206    0.203887
H     -4.451849    0.764329   -0.330809
H     -4.268726   -1.670880   -0.256745
H     -1.334050   -3.592725    0.406899
H     -3.430607    2.966060   -0.344200
H     -1.817041    3.132861    0.379700
