11
freesolv 296 -0.45697659254074097
C     -0.119888   -0.940863   -0.021617
C      0.762122    0.052422    0.705512
N      0.039564    1.208326    0.174701
C     -0.840279    0.285271   -0.542104
H      0.418906   -1.498919   -0.817781
H     -0.743081   -1.554866    0.664199
H      1.822405    0.018044    0.364313
H      0.653163   -0.011216    1.810343
H      0.653737    1.690650   -0.524105
H     -0.762745    0.393699   -1.648463
H     -1.883904    0.357451   -0.164997
