9
freesolv 408 -0.31132617592811584
C      0.902193   -0.220196    0.021385
C     -0.440737    0.490334   -0.095022
O     -1.413550   -0.178856    0.659966
H      1.670655    0.335043   -0.556666
H      1.216156   -0.267544    1.085681
H      0.824518   -1.251690   -0.382892
H     -0.747895    0.550265   -1.163812
H     -0.338099    1.526027    0.292138
H     -1.673240   -0.983383    0.139222
