16
freesolv 119 -0.4387702941894531
C      2.374869    0.127264    0.493079
C      0.931719   -0.030143    0.115634
C      0.497751   -1.185628   -0.553267
C     -0.853671   -1.348188   -0.872140
C     -1.781611   -0.366255   -0.514666
C     -1.360578    0.782180    0.169808
C     -0.007374    0.945165    0.488518
O     -2.276993    1.764202    0.539127
H      3.030856   -0.381268   -0.245257
H      2.544779   -0.317884    1.495581
H      2.657586    1.201211    0.520623
H      1.204588   -1.958869   -0.828051
H     -1.182502   -2.237836   -1.393620
H     -2.826304   -0.500659   -0.764655
H      0.310173    1.830952    1.025310
H     -3.263288    1.675756    0.323977
