21
freesolv 29 -0.020025312900543213
C      2.391685    0.294749    0.389701
C      1.307644   -0.648797    0.910868
C      0.173958   -0.900073   -0.113494
C     -0.605392    0.375488   -0.552084
C     -1.287373    1.110386    0.613729
C     -1.642058    0.030133   -1.630965
O     -0.703710   -1.892517    0.361668
H      2.004723    1.331902    0.312979
H      2.757375   -0.041421   -0.603706
H      3.247199    0.300178    1.097563
H      1.786802   -1.624803    1.143623
H      0.900952   -0.253882    1.865424
H      0.659225   -1.315082   -1.024720
H      0.112748    1.082279   -1.020849
H     -2.029920    0.459676    1.120782
H     -1.817436    2.010174    0.234585
H     -0.538522    1.460356    1.352839
H     -2.126435    0.956235   -2.008120
H     -1.150210   -0.473074   -2.490645
H     -2.428413   -0.640845   -1.223610
H     -1.012839   -1.621062    1.264434
