21
freesolv 428 -0.15527214109897614
C     -3.695324    0.632486    0.292462
C     -2.659919   -0.428218    0.519100
O     -3.041427   -1.560779    0.922303
C     -1.212424   -0.177919    0.282210
C     -0.748880    1.073415   -0.167827
C      0.614793    1.290279   -0.384948
C      1.543860    0.270202   -0.159769
C      1.089395   -0.982478    0.289714
C     -0.273888   -1.202225    0.507715
O      2.900609    0.539980   -0.393047
C      3.951337   -0.402565   -0.205827
H     -3.679680    0.953800   -0.770016
H     -4.709422    0.243882    0.526547
H     -3.493179    1.503452    0.950416
H     -1.432858    1.890189   -0.354624
H      0.952202    2.259175   -0.731076
H      1.780745   -1.793452    0.473860
H     -0.592073   -2.177720    0.853867
H      3.800490   -1.279519   -0.870230
H      3.987551   -0.728255    0.855233
H      4.918093    0.076268   -0.463617
