17
freesolv 98 -0.2020883411169052
C     -2.744008    0.043732   -0.138989
C     -1.575074   -0.825280    0.217197
O     -1.801952   -1.999751    0.617118
C     -0.172761   -0.339647    0.110820
C      0.119737    0.966675   -0.332447
C      1.444506    1.404722   -0.425689
C      2.492463    0.549995   -0.079688
C      2.218552   -0.745851    0.360753
C      0.896287   -1.190238    0.456320
H     -2.677153    0.347498   -1.204636
H     -3.698055   -0.505621    0.010038
H     -2.754179    0.945824    0.507906
H     -0.667805    1.654718   -0.608449
H      1.658457    2.409380   -0.767094
H      3.516797    0.891879   -0.152896
H      3.031853   -1.407897    0.628824
H      0.712336   -2.200139    0.800912
