13
freesolv 301 -0.38675227761268616
C     -1.216574   -0.925861    0.003567
C     -1.639804    0.406750    0.008520
C     -0.697486    1.439935    0.006468
C      0.669685    1.141911   -0.000542
C      1.097357   -0.192360   -0.005519
C      0.149352   -1.226618   -0.003442
O      2.460480   -0.480643   -0.012494
F      1.578529    2.148702   -0.002511
H     -1.946465   -1.725081    0.005158
H     -2.697004    0.638647    0.013946
H     -1.027381    2.470858    0.010311
H      0.469591   -2.260724   -0.007250
H      2.799721   -1.435517   -0.016212
