11
freesolv 104 -0.23069825768470764
C     -0.236775    1.150462   -0.003423
C      1.087987    0.707827   -0.003434
C      1.349398   -0.665065    0.000668
N      0.319940   -1.554552    0.004625
C     -0.977103   -1.143868    0.004713
C     -1.279082    0.220676    0.000673
H     -0.454954    2.210570   -0.006576
H      1.902930    1.420046   -0.006587
H      2.370175   -1.023262    0.000706
H     -1.773473   -1.876041    0.007918
H     -2.309043    0.553206    0.000717
