17
freesolv 73 -0.49859100580215454
C     -2.286428    0.774476   -0.003534
C     -2.404489   -0.602797   -0.218220
C     -1.261226   -1.406112   -0.279423
C      0.006121   -0.832440   -0.125667
C      0.127697    0.559299    0.091392
C     -1.024384    1.357543    0.151364
C      1.405994    1.112079    0.242565
C      2.530601    0.286522    0.177009
C      2.366897   -1.084318   -0.039111
N      1.121086   -1.610068   -0.184475
H     -3.174808    1.391018    0.042863
H     -3.383749   -1.048147   -0.337338
H     -1.362528   -2.471438   -0.446006
H     -0.948994    2.425583    0.316992
H      1.534088    2.174773    0.410171
H      3.521859    0.705370    0.292752
H      3.232263   -1.731342   -0.091334
