14
freesolv 288 -0.20989105105400085
C      1.986652    0.079959    0.112735
C      0.783752   -0.497245   -0.570072
O      0.875185   -1.576313   -1.134870
C     -0.515875    0.258378   -0.616446
C     -1.109880    0.607355    0.740980
C     -1.714557   -0.514364   -0.083827
H      2.296273   -0.585708    0.945308
H      1.764439    1.088123    0.521881
H      2.821285    0.168269   -0.613921
H     -0.730771    0.959762   -1.450119
H     -1.718315    1.536164    0.751814
H     -0.546768    0.252992    1.631331
H     -1.508278   -1.527995    0.323216
H     -2.683144   -0.249380   -0.558011
