21
freesolv 374 -1.4323142766952515
C     -3.232671    0.035353   -0.106120
C     -1.742696   -0.130750   -0.391100
C     -0.928901   -0.142127    0.911211
C      0.560490   -0.437738    0.674787
C      1.294609    0.729282    0.001665
C      2.761989    0.438661   -0.093048
O      3.545263    0.869932    0.794594
N      3.272247   -0.360642   -1.159961
H     -3.418591    0.990598    0.429688
H     -3.795068    0.049770   -1.063486
H     -3.604845   -0.810156    0.510857
H     -1.414836    0.709291   -1.038934
H     -1.587356   -1.084116   -0.941517
H     -1.333088   -0.934148    1.579377
H     -1.041333    0.831408    1.437205
H      1.032227   -0.634534    1.662976
H      0.668791   -1.359154    0.060977
H      0.898080    0.895722   -1.021728
H      1.140600    1.661715    0.587737
H      2.632348   -0.744508   -1.890365
H      4.292743   -0.573859   -1.217464
