19
freesolv 48 -0.6052279472351074
C     -2.715117   -0.329994    0.420773
C     -1.803191   -0.109162   -0.781446
C     -0.363599   -0.025199   -0.350246
C      0.417504   -1.188809   -0.257612
C      1.745861   -1.113670    0.172618
C      2.303439    0.120170    0.523457
C      1.524460    1.282679    0.445055
C      0.195885    1.210170    0.015119
O      3.628116    0.180104    0.950183
H     -2.618600    0.513189    1.137834
H     -3.770597   -0.388883    0.081141
H     -2.452997   -1.279862    0.934089
H     -1.938284   -0.944675   -1.502474
H     -2.101936    0.827266   -1.301128
H     -0.002463   -2.152757   -0.517227
H      2.341519   -2.015416    0.236603
H      1.946085    2.241152    0.719863
H     -0.396793    2.115428   -0.031998
H      4.060708    1.058270    1.212056
