33
freesolv 297 -0.7742864489555359
C      4.586410   -0.170614   -0.302117
C      3.221194   -0.337801    0.314317
C      3.116509   -1.008858    1.543191
C      1.879004   -1.172881    2.159187
C      0.728485   -0.663771    1.564313
C      0.794191   -0.001857    0.327194
C      2.045782    0.139691   -0.325903
C      2.117955    0.823628   -1.672959
N     -0.402811    0.570082   -0.235045
C     -1.698034   -0.046463   -0.123172
C     -1.816217   -1.436455   -0.304151
C     -3.067892   -2.051824   -0.291485
C     -4.218894   -1.288059   -0.109584
C     -4.122180    0.092732    0.071178
C     -2.868186    0.731713    0.077940
C     -2.818459    2.190676    0.340196
O     -1.780307    2.727800    0.811619
O     -3.942426    2.978227    0.103836
H      4.735613    0.881805   -0.623253
H      5.394226   -0.414805    0.420422
H      4.686989   -0.846335   -1.177099
H      3.998770   -1.401362    2.033911
H      1.813604   -1.682234    3.112090
H     -0.217147   -0.769033    2.080818
H      2.185640    1.921990   -1.528372
H      1.222467    0.586976   -2.284838
H      2.987664    0.481782   -2.268936
H     -0.329200    1.463210   -0.771443
H     -0.936040   -2.041834   -0.480511
H     -3.146141   -3.121752   -0.435342
H     -5.189467   -1.767236   -0.104550
H     -5.031937    0.659159    0.227516
H     -3.929165    3.973703    0.291252
