17
freesolv 52 -0.555810809135437
C     -2.777588    0.647010    0.136760
O     -1.796517   -0.325851   -0.207507
C     -0.411983   -0.138606   -0.072987
C      0.139288    1.058555    0.426945
C      1.524938    1.201413    0.543863
C      2.371623    0.157646    0.165575
C      1.834910   -1.032386   -0.330889
C      0.445702   -1.183556   -0.451269
O     -0.091247   -2.370667   -0.946586
H     -3.785916    0.234206   -0.071121
H     -2.709626    0.891890    1.217791
H     -2.636273    1.564228   -0.473120
H     -0.493165    1.882690    0.727198
H      1.942752    2.122931    0.928406
H      3.444161    0.270850    0.257120
H      2.498357   -1.836816   -0.621961
H      0.500585   -3.143536   -1.228218
