30
freesolv 192 -0.020025312900543213
C      5.060751   -0.131232    0.661180
C      3.701502    0.536869    0.475543
C      2.602022   -0.502965    0.231015
C      1.238055    0.172114    0.044995
C      0.137627   -0.867444   -0.199337
C     -1.226493   -0.192315   -0.387003
C     -2.330479   -1.235660   -0.612266
C     -3.682314   -0.607429   -0.991972
C     -4.351301    0.148434    0.161972
O     -3.768484    1.412252    0.318794
H      5.334634   -0.708018   -0.247882
H      5.038515   -0.814602    1.536736
H      5.835526    0.644722    0.836079
H      3.463573    1.126954    1.387438
H      3.758415    1.233074   -0.389570
H      2.553475   -1.197778    1.098505
H      2.848666   -1.091584   -0.680221
H      0.992086    0.761060    0.956181
H      1.286751    0.866862   -0.822511
H      0.385368   -1.456832   -1.109720
H      0.087696   -1.561650    0.668579
H     -1.179108    0.493664   -1.261282
H     -1.457836    0.401669    0.522577
H     -2.024688   -1.908087   -1.443792
H     -2.448522   -1.862732    0.298619
H     -4.362348   -1.430845   -1.301582
H     -3.562542    0.064948   -1.869633
H     -5.431197    0.274919   -0.075478
H     -4.268215   -0.435692    1.106005
H     -4.231134    1.835406    1.088030
