24
freesolv 5 -0.3581423759460449
C      2.877987   -0.685359   -0.081660
C      1.547813    0.009181   -0.132221
C      1.467305    1.301626    0.218449
C      0.183077    2.021128    0.201479
O      0.144711    3.233325    0.540934
C     -1.071969    1.337641   -0.264956
C     -0.998252   -0.197762   -0.063388
C      0.334113   -0.732284   -0.654299
C     -2.179628   -0.860606   -0.799731
C     -1.098836   -0.549659    1.439223
H      3.611602   -0.143352   -0.715480
H      2.800485   -1.728677   -0.453448
H      3.247908   -0.710386    0.965109
H      2.353145    1.827714    0.555647
H     -1.200848    1.572812   -1.344177
H     -1.949148    1.754586    0.277527
H      0.324119   -0.618816   -1.760656
H      0.429962   -1.818555   -0.434978
H     -2.143095   -0.636444   -1.887762
H     -2.150492   -1.964499   -0.672690
H     -3.147932   -0.487380   -0.401382
H     -0.271404   -0.090344    2.019698
H     -2.059039   -0.183651    1.862521
H     -1.051584   -1.650240    1.586242
