17
freesolv 201 -0.26971176266670227
C      2.523545   -0.643336    0.222351
C      1.214851    0.049011   -0.016413
C      0.005483   -0.645035    0.125423
C     -1.213692    0.017569   -0.071957
C     -1.197794    1.387648   -0.366858
N     -0.015534    2.048664   -0.480499
C      1.177003    1.418394   -0.312542
C     -2.513578   -0.708551    0.107148
H      2.458552   -1.713238   -0.069361
H      3.331178   -0.172040   -0.377338
H      2.785524   -0.576477    1.298888
H      0.013124   -1.696811    0.386724
H     -2.124031    1.931458   -0.501411
H      2.094040    1.986069   -0.404937
H     -2.826136   -0.649125    1.170544
H     -3.304879   -0.257959   -0.529113
H     -2.407656   -1.776242   -0.180649
