22
freesolv 75 -1.4271124601364136
C     -1.811783    0.055623    1.328978
N     -1.691099   -0.792324    0.137825
C     -2.874782   -1.454548   -0.416044
C     -0.393131   -1.111649   -0.402836
O     -0.208357   -2.230873   -0.954834
C      0.738808   -0.164151   -0.320522
C      0.552274    1.201952   -0.592261
C      1.632744    2.087505   -0.529462
C      2.907891    1.615424   -0.207715
C      3.106251    0.255346    0.043743
C      2.028513   -0.633660   -0.018769
H     -2.807734   -0.057355    1.806797
H     -1.680548    1.121771    1.057215
H     -1.043688   -0.231933    2.078149
H     -2.811954   -2.549066   -0.239335
H     -3.809381   -1.073845    0.047380
H     -2.931937   -1.262830   -1.508416
H     -0.421782    1.579348   -0.876403
H      1.482784    3.138814   -0.738637
H      3.743304    2.301969   -0.160845
H      4.095630   -0.110652    0.285987
H      2.197975   -1.684864    0.180005
