24
freesolv 248 -1.385498046875
C      2.870827    1.332290    0.107223
N      2.520236   -0.091328    0.097184
C      3.569029   -1.106871   -0.041256
C      1.141338   -0.509490    0.181407
O      0.856738   -1.735393    0.086366
N      0.090423    0.447970    0.405824
C     -1.298958    0.184056    0.143312
C     -2.280482    0.815172    0.924517
C     -3.637696    0.591165    0.673259
C     -4.026643   -0.253418   -0.369367
C     -3.058954   -0.869162   -1.167071
C     -1.700436   -0.648542   -0.918631
H      2.640556    1.768911    1.101477
H      3.950791    1.490792   -0.095283
H      2.295894    1.867590   -0.677895
H      3.535265   -1.799767    0.825971
H      3.410622   -1.684059   -0.976707
H      4.581347   -0.652618   -0.078908
H      0.328587    1.348835    0.876662
H     -1.992182    1.473600    1.734367
H     -4.387913    1.074345    1.285816
H     -5.077506   -0.424258   -0.564242
H     -3.361634   -1.511303   -1.984145
H     -0.969249   -1.108516   -1.569880
