21
freesolv 270 -0.6754522323608398
C     -1.847500    0.750654    1.076941
O     -0.476710    0.576663    1.370292
C      0.268080   -0.053324    0.320426
C      0.616953   -1.478135    0.817126
C     -0.562101   -2.353114    0.874186
N     -1.489697   -3.043606    0.918649
O     -0.456775   -0.091723   -0.920316
C      0.277712   -0.680652   -1.977437
O      1.497936    0.645238    0.161405
C      1.283188    2.009318   -0.143595
H     -1.982682    1.506722    0.273234
H     -2.356319    1.133918    1.984862
H     -2.333896   -0.209658    0.801575
H      1.381581   -1.948530    0.163728
H      1.057059   -1.416420    1.835580
H      0.248969   -1.787790   -1.903044
H     -0.209858   -0.405992   -2.934973
H      1.328035   -0.323140   -2.033329
H      2.258781    2.467422   -0.405432
H      0.887031    2.557172    0.738228
H      0.610215    2.144976   -1.018105
