28
freesolv 205 -1.278861165046692
C      3.772621   -1.128606   -0.555412
C      3.046501    0.012783   -1.266457
C      2.939596    1.280877   -0.403008
C      2.019131    1.116305    0.809647
O      0.711133    0.743181    0.386839
C     -0.340318    0.520342    1.281854
O     -0.155677    0.665534    2.522027
C     -1.667078    0.113084    0.769938
C     -1.870453   -0.065015   -0.610291
C     -3.122988   -0.450943   -1.097473
C     -4.187904   -0.663979   -0.212970
C     -3.993590   -0.489283    1.160144
C     -2.742514   -0.103516    1.651312
O     -5.439871   -1.048590   -0.687490
H      4.761459   -0.787883   -0.181466
H      3.933610   -1.964121   -1.268823
H      3.167025   -1.511489    0.291945
H      3.614242    0.265606   -2.188020
H      2.036387   -0.327635   -1.581256
H      3.951400    1.584789   -0.056705
H      2.543684    2.105179   -1.035246
H      1.967505    2.084582    1.353319
H      2.427571    0.351671    1.504025
H     -1.063024    0.092557   -1.314451
H     -3.264409   -0.584256   -2.162501
H     -4.813409   -0.652771    1.848126
H     -2.618109    0.025034    2.719280
H     -5.612523   -1.183437   -1.676886
