9
freesolv 138 -0.1318640410900116
C     -0.548330   -0.373201   -0.185292
C      0.901950    0.083996   -0.050276
F      1.118777    0.605703    1.212353
F      1.746396   -0.993807   -0.243637
F      1.180686    1.052140   -0.998123
O     -1.422884    0.713843   -0.045098
H     -0.773489   -1.157874    0.572803
H     -0.696549   -0.820040   -1.191228
H     -1.506557    0.889240    0.928498
