16
freesolv 144 -0.42836669087409973
C     -2.249680    0.443786   -0.681704
C     -1.409992    0.231151    0.573078
C      0.023959   -0.027522    0.214650
C      0.473098   -1.322800   -0.079631
N      1.771456   -1.516588   -0.431601
C      2.642478   -0.476646   -0.510113
C      2.195557    0.815645   -0.229002
N      0.897639    1.011956    0.122307
H     -2.220664   -0.462664   -1.323572
H     -3.303748    0.641991   -0.394414
H     -1.868216    1.313809   -1.258005
H     -1.819866   -0.624905    1.152062
H     -1.476152    1.136125    1.215060
H     -0.201374   -2.168013   -0.031627
H      3.672079   -0.651625   -0.792129
H      2.873426    1.656300   -0.292052
