18
freesolv 350 -0.9069324135780334
C      2.529565   -1.225765    1.113040
O      2.133598    0.078180    0.700266
C      0.861614    0.400073    0.203745
C      0.608874    1.726683   -0.165756
C     -0.642094    2.097412   -0.665690
C     -1.653582    1.143781   -0.801063
C     -1.418303   -0.188759   -0.436159
C     -0.161449   -0.559461    0.065748
N     -2.454232   -1.165028   -0.574888
H      3.582668   -1.192060    1.459724
H      2.458330   -1.934175    0.260795
H      1.889826   -1.571313    1.952427
H      1.386384    2.473309   -0.064613
H     -0.827643    3.125567   -0.948590
H     -2.619164    1.442274   -1.189594
H      0.009060   -1.590684    0.344251
H     -3.393046   -0.899092   -0.947439
H     -2.290407   -2.160941   -0.306205
