10
freesolv 224 -0.1266622394323349
C      1.196850   -0.154612   -0.042955
N      0.025871    0.692910   -0.271920
C     -1.202729   -0.077589   -0.074972
H      1.199409   -0.558049    0.993976
H      1.215189   -0.993684   -0.771585
H      2.118991    0.446589   -0.188564
H      0.040831    1.456581    0.443985
H     -2.080213    0.581375   -0.244604
H     -1.255405   -0.914389   -0.804544
H     -1.258794   -0.479131    0.961182
