31
freesolv 123 -1.5103412866592407
C     -2.398866    1.643689   -0.918786
C     -1.799511    0.848348    0.248524
C     -2.540647   -0.514469    0.450008
C     -1.458518   -1.507731    0.221269
C     -1.545345   -2.899770    0.230786
C     -0.390374   -3.643021   -0.059567
C      0.822608   -2.986912   -0.346463
C      0.895420   -1.582532   -0.331868
C     -0.282921   -0.869912   -0.059932
O     -0.449372    0.499156   -0.065635
O      2.113450   -0.955036   -0.626766
C      2.562415    0.233033   -0.037939
O      2.050200    0.652941    1.036171
N      3.651440    0.940018   -0.637779
C      4.173742    2.176626   -0.070291
C     -1.815206    1.687723    1.533038
H     -2.353035    1.045210   -1.853883
H     -1.827017    2.582662   -1.079102
H     -3.459670    1.900193   -0.709887
H     -3.355564   -0.671113   -0.290073
H     -2.947752   -0.633188    1.477819
H     -2.483082   -3.395609    0.445440
H     -0.433210   -4.724382   -0.066234
H      1.706426   -3.570583   -0.570067
H      4.078512    0.561894   -1.512985
H      4.553298    1.989083    0.956186
H      3.371307    2.943390   -0.035736
H      5.007301    2.556841   -0.697675
H     -1.349028    1.120528    2.367137
H     -1.238739    2.626206    1.386960
H     -2.858260    1.946715    1.815316
