14
freesolv 453 -0.6624477505683899
C     -1.600923    0.629765   -0.066594
C     -0.769957   -0.489854    0.559501
C      0.410483   -0.905955   -0.327040
C      1.449302    0.170276   -0.406602
O      1.522263    0.904819   -1.427909
O      2.315447    0.377156    0.662380
H     -1.976162    0.320686   -1.065359
H     -0.994678    1.554106   -0.171153
H     -2.471514    0.853437    0.585274
H     -0.401636   -0.166152    1.557605
H     -1.427457   -1.372954    0.712060
H      0.879626   -1.816010    0.104381
H      0.049402   -1.167608   -1.345890
H      3.015804    1.108290    0.629346
