12
freesolv 164 -0.2723126709461212
C      1.340087    0.415303   -0.252881
C      0.262877   -0.257125    0.595322
C     -1.008380   -0.536491   -0.212954
O     -1.593899    0.658728   -0.655017
H      1.605747   -0.226606   -1.119694
H      2.250524    0.574750    0.362427
H      0.985633    1.401475   -0.620776
H      0.660806   -1.218912    0.985028
H      0.018530    0.391378    1.464389
H     -0.761074   -1.164773   -1.095163
H     -1.730145   -1.108170    0.413495
H     -2.030705    1.070442    0.135824
