17
freesolv 196 -0.16047394275665283
C     -0.732887    1.203809   -1.699386
O     -0.896223   -0.060068   -1.093035
C     -0.003147   -0.198884   -0.002325
O      1.288512   -0.476355   -0.513335
C      2.261640   -0.285859    0.490885
O     -0.421367   -1.302065    0.781629
C     -1.529134   -0.942124    1.578509
H     -1.051671    2.017903   -1.011787
H      0.315873    1.366247   -2.033805
H     -1.381908    1.251091   -2.597717
H      0.011707    0.740423    0.616219
H      2.332329    0.786804    0.776474
H      3.249191   -0.590785    0.088113
H      2.055803   -0.913472    1.386348
H     -1.239284   -0.188839    2.343829
H     -2.373417   -0.563128    0.960715
H     -1.886016   -1.844699    2.115588
