16
freesolv 62 -0.9355422854423523
C     -0.999611   -1.010377    0.154537
C     -1.348150    0.493234    0.216488
N     -0.363477    1.303062   -0.511128
C      0.984592    1.146321    0.062070
C      1.286735   -0.305820    0.485631
N      0.404575   -1.238148   -0.221163
H     -1.216573   -1.481707    1.139748
H     -1.646944   -1.502447   -0.602774
H     -1.386428    0.827025    1.277356
H     -2.357448    0.663199   -0.216985
H     -0.345844    0.987822   -1.510201
H      1.736605    1.475151   -0.688849
H      1.087863    1.817250    0.942107
H      2.345998   -0.546971    0.249422
H      1.154265   -0.415625    1.586401
H      0.663843   -2.211969    0.062458
