19
freesolv 26 -1.1202062368392944
C      2.651774    0.766626    0.602016
C      2.669981   -0.627022    0.499299
C      1.479363   -1.334473    0.309165
C      0.258414   -0.647702    0.220397
C     -0.943952   -1.345982    0.029592
C     -2.155933   -0.652445   -0.057633
C     -2.171058    0.745263    0.045744
C     -0.980085    1.451717    0.235846
C      0.240102    0.765126    0.324547
C      1.442812    1.463088    0.515361
O     -3.339961   -1.361585   -0.247135
H      3.577115    1.308491    0.749175
H      3.609374   -1.160365    0.567217
H      1.512642   -2.414712    0.231753
H     -0.944221   -2.426725   -0.051737
H     -3.106775    1.285588   -0.021239
H     -1.012728    2.531992    0.313325
H      1.447708    2.543507    0.597177
H     -4.234569   -0.890386   -0.314586
