15
freesolv 96 -0.2280973494052887
C      1.476427   -1.157909   -0.387322
C      1.967907    0.109187   -0.072156
C      1.084349    1.140850    0.250663
C     -0.300490    0.912972    0.260850
C     -0.803056   -0.369706   -0.057931
C      0.099976   -1.397282   -0.380655
C     -2.250503   -0.673991   -0.065053
O     -3.112193    0.200809    0.214479
O     -1.166127    1.957269    0.586136
H      2.162836   -1.956609   -0.637367
H      3.034670    0.292343   -0.077958
H      1.476996    2.120102    0.493572
H     -0.260948   -2.388300   -0.628364
H     -2.588164   -1.671714   -0.315764
H     -0.821677    2.881978    0.816867
