24
freesolv 356 -2.2984142303466797
C      3.201524    0.941163    0.005783
N      2.153923   -0.074422    0.031992
C      2.321113   -1.419839    0.032371
N      1.147531   -2.104318    0.041335
C      0.226274   -1.119514    0.049008
C      0.821255    0.094948    0.040593
C      0.056513    1.253883    0.019354
O      0.611127    2.386714   -0.009611
N     -1.314426    1.129153    0.021352
C     -1.900260   -0.126454   -0.000067
O     -3.157976   -0.230746   -0.066085
N     -1.126394   -1.266698    0.042296
C     -1.736586   -2.602094   -0.003655
C     -2.159555    2.333453   -0.038416
H      3.115695    1.543545   -0.922774
H      4.204725    0.464813    0.030540
H      3.102266    1.605181    0.889919
H      3.288705   -1.904967    0.021720
H     -1.969562   -2.868389   -1.056047
H     -1.057857   -3.371323    0.422715
H     -2.671557   -2.626442    0.595967
H     -2.373147    2.585794   -1.098359
H     -1.664952    3.200210    0.449718
H     -3.118378    2.176350    0.500351
