14
freesolv 165 -2.503885269165039
C      1.284482    0.196784    0.274770
C     -0.089917    0.713076   -0.173664
C     -1.104984   -0.425640   -0.376381
O     -1.373502   -1.081715    0.834836
O     -0.572126    1.617466    0.786066
O      1.860609   -0.611658   -0.716916
H      1.954067    1.067459    0.441119
H      1.207920   -0.345767    1.245601
H      0.047180    1.241399   -1.146385
H     -2.054964    0.005889   -0.757197
H     -0.744817   -1.140993   -1.151302
H     -0.732443   -1.836444    0.902479
H     -1.287260    2.148574    0.347150
H      1.605756   -1.548430   -0.510177
